/*--------------------------------*- C++ -*----------------------------------*\
| =========                 |                                                 |
| \\      /  F ield         | OpenFOAM: The Open Source CFD Toolbox           |
|  \\    /   O peration     | Version:  2106                                  |
|   \\  /    A nd           | Website:  www.openfoam.com                      |
|    \\/     M anipulation  |                                                 |
\*---------------------------------------------------------------------------*/
FoamFile
{
    version     2.0;
    format      ascii;
    arch        "LSB;label=32;scalar=64";
    class       featureEdgeMesh;
    location    "constant/triSurface";
    object      airfoil_scaled.eMesh;
}
// * * * * * * * * * * * * * * * * * * * * * * * * * * * * * * * * * * * * * //


// points:

272
(
(0.495758 0.0486729 1)
(0.495758 0.0486729 -1)
(0.495758 -0.0486729 -1)
(0.495758 -0.0486729 1)
(0.072283 0.0312713 1)
(0.0816603 0.0327746 1)
(0.0816603 0.0327746 -1)
(0.072283 0.0312713 -1)
(0.0646956 0.0299665 1)
(0.0646956 0.0299665 -1)
(0.319754 0.0490728 1)
(0.32629 0.04922 1)
(0.0586822 0.0288731 -1)
(0.0586822 0.0288731 1)
(0.30189 0.04861 1)
(0.30189 0.04861 -1)
(0.285685 0.0481125 -1)
(0.0496676 0.0271155 -1)
(0.0496676 0.0271155 1)
(0.04517 0.02617 1)
(0.04517 0.02617 -1)
(0.285685 0.0481125 1)
(0.27747 0.04783 -1)
(0.0391204 0.0247992 1)
(0.0391204 0.0247992 -1)
(0.036373 0.0241291 1)
(0.27747 0.04783 1)
(0.253256 0.0468703 -1)
(0.036373 0.0241291 -1)
(0.0310979 0.0227323 1)
(0.0310979 0.0227323 -1)
(0.253256 0.0468703 1)
(0.25302 0.04686 1)
(0.25302 0.04686 -1)
(0.0285129 0.0219814 1)
(0.0285129 0.0219814 -1)
(0.47288 0.04923 1)
(0.47288 0.04923 -1)
(0.0248429 0.0208179 -1)
(0.22857 0.0457 1)
(0.22857 0.0457 -1)
(0.0248429 0.0208179 1)
(0.0237602 0.0204487 1)
(0.0237602 0.0204487 -1)
(0.0192528 0.0187511 -1)
(0.458168 0.0495112 -1)
(0.0192528 0.0187511 1)
(0.217833 0.0451329 1)
(0.217833 0.0451329 -1)
(0.20417 0.04436 -1)
(0.01908 0.01868 -1)
(0.01908 0.01868 1)
(0.0147201 0.0166995 -1)
(0.458168 0.0495112 1)
(0.44844 0.04966 -1)
(0.0147201 0.0166995 1)
(0.20417 0.04436 1)
(0.0145779 0.0166279 -1)
(0.0110671 0.01468 -1)
(0.0145779 0.0166279 1)
(0.0110671 0.01468 1)
(0.185265 0.0431876 -1)
(0.44844 0.04966 1)
(0.424332 0.0499076 -1)
(0.0109691 0.0146199 -1)
(0.0109691 0.0146199 1)
(0.185265 0.0431876 1)
(0.0079545 0.0125702 1)
(0.0079545 0.0125702 -1)
(0.1799 0.04283 1)
(0.1799 0.04283 -1)
(0.00787427 0.0125094 -1)
(0.159828 0.0413658 -1)
(0.00787427 0.0125094 1)
(0.00596415 0.0109358 1)
(0.424332 0.0499076 1)
(0.00596415 0.0109358 -1)
(0.00536646 0.0103836 -1)
(0.42399 0.04991 -1)
(0.00536646 0.0103836 1)
(0.00414 0.00913 -1)
(0.159828 0.0413658 1)
(0.15588 0.04105 -1)
(0.00414 0.00913 1)
(0.00339037 0.00826037 -1)
(0.00339037 0.00826037 1)
(0.0030407 0.00781961 1)
(0.42399 0.04991 1)
(0.0030407 0.00781961 -1)
(0.00206 0.00642 -1)
(0.39954 0.05 -1)
(0.15588 0.04105 1)
(0.00206 0.00642 1)
(0.00189448 0.00615257 -1)
(0.00189448 0.00615257 1)
(0.00133638 0.0051528 -1)
(0.00133638 0.0051528 1)
(0.00084505 0.0040848 1)
(0.137158 0.0394129 -1)
(0.00084505 0.0040848 -1)
(0.00074 0.00382 -1)
(0.39954 0.05 1)
(0.388923 0.0499871 -1)
(0.00074 0.00382 1)
(0.000334244 0.00256456 -1)
(0.000334244 0.00256456 1)
(0.000225895 0.00211101 -1)
(8e-05 0.00127 -1)
(0.137158 0.0394129 1)
(0.000225895 0.00211101 1)
(8e-05 0.00127 1)
(5.48468e-05 0.00106011 -1)
(0.1322 0.03894 1)
(0.1322 0.03894 -1)
(5.48468e-05 0.00106011 1)
(-3.00011e-06 -3.39256e-06 -1)
(-3.00011e-06 -3.39256e-06 1)
(0.388923 0.0499871 1)
(0.37511 0.04992 -1)
(0.115234 0.0371803 1)
(0.115234 0.0371803 -1)
(0.111617 0.0367716 -1)
(0.111617 0.0367716 1)
(0.37511 0.04992 1)
(0.355941 0.0497312 -1)
(0.0987708 0.0352015 -1)
(0.355941 0.0497312 1)
(0.3507 0.04966 -1)
(0.0987708 0.0352015 1)
(0.0970515 0.0349758 1)
(0.0970515 0.0349758 -1)
(0.08594 0.03342 1)
(0.08594 0.03342 -1)
(0.3507 0.04966 1)
(0.32629 0.04922 -1)
(0.319754 0.0490728 -1)
(0.00356361 -0.00847497 -1)
(0.00508375 -0.0101259 -1)
(0.0542629 -0.0280687 1)
(0.04517 -0.02617 1)
(0.0568087 -0.0285642 -1)
(0.0677238 -0.0305443 -1)
(0.00508375 -0.0101259 1)
(0.00356361 -0.00847497 1)
(0.0568087 -0.0285642 1)
(0.00530388 -0.0103412 -1)
(0.0677238 -0.0305443 1)
(0.00530388 -0.0103412 1)
(0.0685087 -0.0306785 -1)
(0.00698124 -0.0118354 -1)
(0.0685087 -0.0306785 1)
(0.0772163 -0.0321033 -1)
(0.00698124 -0.0118354 1)
(0.0772163 -0.0321033 1)
(0.00722 -0.01203 -1)
(0.00978842 -0.0139068 -1)
(0.0834326 -0.0330523 -1)
(0.0834326 -0.0330523 1)
(0.00722 -0.01203 1)
(0.08594 -0.03342 -1)
(0.08594 -0.03342 1)
(8e-05 -0.00127 -1)
(0.097106 -0.0349595 -1)
(0.0974165 -0.0350001 -1)
(0.00978842 -0.0139068 1)
(0.097106 -0.0349595 1)
(0.0100747 -0.014095 1)
(0.0100747 -0.014095 -1)
(0.0974165 -0.0350001 1)
(0.10891 -0.03643 -1)
(0.11578 -0.0372208 -1)
(0.013102 -0.0158898 -1)
(0.10891 -0.03643 1)
(8e-05 -0.00127 1)
(0.120548 -0.0377439 -1)
(0.11578 -0.0372208 1)
(0.013102 -0.0158898 1)
(0.000194518 -0.00196055 -1)
(0.013131 -0.0159055 -1)
(0.120548 -0.0377439 1)
(0.1322 -0.03894 -1)
(0.013131 -0.0159055 1)
(0.0160537 -0.0173677 -1)
(0.017088 -0.0178364 -1)
(0.1322 -0.03894 1)
(0.000194518 -0.00196055 1)
(0.000334277 -0.00256472 -1)
(0.136741 -0.0393764 -1)
(0.136741 -0.0393764 1)
(0.0160537 -0.0173677 1)
(0.15588 -0.04105 -1)
(0.15588 -0.04105 1)
(0.000334277 -0.00256472 1)
(0.00074 -0.00382 -1)
(0.159693 -0.0413543 -1)
(0.1799 -0.04283 -1)
(0.159693 -0.0413543 1)
(0.017088 -0.0178364 1)
(0.01908 -0.01868 1)
(0.01908 -0.01868 -1)
(0.0212958 -0.0195408 -1)
(0.1799 -0.04283 1)
(0.1855 -0.0432035 -1)
(0.00074 -0.00382 1)
(0.000750504 -0.00384726 -1)
(0.1855 -0.0432035 1)
(0.20417 -0.04436 1)
(0.20417 -0.04436 -1)
(0.2165 -0.0450598 1)
(0.2165 -0.0450598 -1)
(0.0212958 -0.0195408 1)
(0.0242309 -0.0205797 -1)
(0.0242309 -0.0205797 1)
(0.22857 -0.0457 1)
(0.22857 -0.0457 -1)
(0.000750504 -0.00384726 1)
(0.00133626 -0.00515234 -1)
(0.249242 -0.0466929 1)
(0.249242 -0.0466929 -1)
(0.0269482 -0.0214591 -1)
(0.0269482 -0.0214591 1)
(0.0294712 -0.0222191 -1)
(0.25302 -0.04686 1)
(0.25302 -0.04686 -1)
(0.00133626 -0.00515234 1)
(0.27747 -0.04783 -1)
(0.0017367 -0.00588638 -1)
(0.27747 -0.04783 1)
(0.281315 -0.0479649 1)
(0.281315 -0.0479649 -1)
(0.0017367 -0.00588638 1)
(0.30189 -0.04861 -1)
(0.30189 -0.04861 1)
(0.316872 -0.0490041 1)
(0.316872 -0.0490041 -1)
(0.0294712 -0.0222191 1)
(0.00206 -0.00642 -1)
(0.0340233 -0.0234824 -1)
(0.0340233 -0.0234824 1)
(0.32629 -0.04922 -1)
(0.32629 -0.04922 1)
(0.3507 -0.04966 1)
(0.3507 -0.04966 -1)
(0.351081 -0.0496655 -1)
(0.37511 -0.04992 -1)
(0.0372934 -0.0243221 -1)
(0.351081 -0.0496655 1)
(0.37511 -0.04992 1)
(0.387339 -0.0499823 -1)
(0.00206 -0.00642 1)
(0.00317228 -0.00799159 -1)
(0.387339 -0.0499823 1)
(0.39954 -0.05 1)
(0.39954 -0.05 -1)
(0.423931 -0.0499104 -1)
(0.0372934 -0.0243221 1)
(0.043053 -0.0256945 -1)
(0.043053 -0.0256945 1)
(0.423931 -0.0499104 1)
(0.00317228 -0.00799159 1)
(0.42399 -0.04991 1)
(0.42399 -0.04991 -1)
(0.44844 -0.04966 1)
(0.44844 -0.04966 -1)
(0.459355 -0.049491 1)
(0.459355 -0.049491 -1)
(0.47288 -0.04923 -1)
(0.47288 -0.04923 1)
(0.477557 -0.0491271 1)
(0.477557 -0.0491271 -1)
(0.04517 -0.02617 -1)
(0.0542629 -0.0280687 -1)
)


// edges:

274
(
(0 1)
(2 3)
(4 5)
(6 7)
(8 4)
(7 9)
(10 11)
(9 12)
(13 8)
(14 10)
(15 16)
(12 17)
(18 13)
(19 18)
(17 20)
(21 14)
(16 22)
(23 19)
(20 24)
(25 23)
(26 21)
(22 27)
(24 28)
(29 25)
(28 30)
(31 26)
(32 31)
(27 33)
(34 29)
(30 35)
(36 0)
(1 37)
(35 38)
(39 32)
(33 40)
(41 34)
(42 41)
(38 43)
(43 44)
(37 45)
(46 42)
(47 39)
(40 48)
(48 49)
(44 50)
(51 46)
(50 52)
(53 36)
(45 54)
(55 51)
(56 47)
(52 57)
(57 58)
(59 55)
(60 59)
(49 61)
(62 53)
(54 63)
(58 64)
(65 60)
(66 56)
(67 65)
(64 68)
(69 66)
(61 70)
(68 71)
(70 72)
(73 67)
(74 73)
(75 62)
(71 76)
(76 77)
(63 78)
(79 74)
(77 80)
(81 69)
(72 82)
(83 79)
(80 84)
(85 83)
(86 85)
(87 75)
(84 88)
(88 89)
(78 90)
(91 81)
(92 86)
(89 93)
(94 92)
(93 95)
(96 94)
(97 96)
(82 98)
(95 99)
(99 100)
(101 87)
(90 102)
(103 97)
(100 104)
(105 103)
(104 106)
(106 107)
(108 91)
(109 105)
(110 109)
(107 111)
(112 108)
(98 113)
(114 110)
(111 115)
(116 114)
(117 101)
(102 118)
(119 112)
(113 120)
(120 121)
(122 119)
(123 117)
(118 124)
(121 125)
(126 123)
(124 127)
(128 122)
(129 128)
(125 130)
(131 129)
(130 132)
(133 126)
(127 134)
(5 131)
(132 6)
(11 133)
(134 135)
(135 15)
(136 137)
(138 139)
(140 141)
(142 143)
(144 138)
(137 145)
(146 144)
(147 142)
(141 148)
(145 149)
(150 146)
(148 151)
(152 147)
(153 150)
(149 154)
(154 155)
(151 156)
(157 153)
(158 152)
(156 159)
(160 157)
(115 161)
(159 162)
(162 163)
(164 158)
(165 160)
(166 164)
(155 167)
(168 165)
(163 169)
(169 170)
(167 171)
(172 168)
(173 116)
(170 174)
(175 172)
(176 166)
(161 177)
(171 178)
(179 175)
(174 180)
(181 176)
(178 182)
(182 183)
(184 179)
(185 173)
(177 186)
(180 187)
(188 184)
(189 181)
(187 190)
(191 188)
(192 185)
(186 193)
(190 194)
(194 195)
(196 191)
(197 189)
(198 197)
(183 199)
(199 200)
(201 196)
(195 202)
(203 192)
(193 204)
(205 201)
(206 205)
(202 207)
(208 206)
(207 209)
(210 198)
(200 211)
(212 210)
(213 208)
(209 214)
(215 203)
(204 216)
(217 213)
(214 218)
(211 219)
(220 212)
(219 221)
(222 217)
(218 223)
(224 215)
(223 225)
(216 226)
(227 222)
(228 227)
(225 229)
(230 224)
(229 231)
(232 228)
(233 232)
(231 234)
(235 220)
(226 236)
(221 237)
(238 235)
(234 239)
(240 233)
(241 240)
(239 242)
(242 243)
(243 244)
(237 245)
(246 241)
(247 246)
(244 248)
(249 230)
(236 250)
(251 247)
(252 251)
(248 253)
(253 254)
(255 238)
(245 256)
(257 255)
(258 252)
(259 249)
(260 258)
(254 261)
(262 260)
(261 263)
(264 262)
(263 265)
(265 266)
(250 136)
(267 264)
(268 267)
(266 269)
(269 2)
(256 270)
(3 268)
(139 257)
(270 271)
(271 140)
(143 259)
(3 0)
(1 2)
)

// * * * * * * * * * * * * * * * * * * * * * * * * * * * * * * * * * * * * * //


// ************************************************************************* //
