/*--------------------------------*- C++ -*----------------------------------*\
| =========                 |                                                 |
| \\      /  F ield         | OpenFOAM: The Open Source CFD Toolbox           |
|  \\    /   O peration     | Version:  2106                                  |
|   \\  /    A nd           | Website:  www.openfoam.com                      |
|    \\/     M anipulation  |                                                 |
\*---------------------------------------------------------------------------*/
FoamFile
{
    version     2.0;
    format      ascii;
    arch        "LSB;label=32;scalar=64";
    class       featureEdgeMesh;
    location    "constant/triSurface";
    object      flap_scaled.eMesh;
}
// * * * * * * * * * * * * * * * * * * * * * * * * * * * * * * * * * * * * * //


// points:

280
(
(1 0.001 1)
(1 0.001 -1)
(0.533333 -4.84847e-13 -1)
(0.533333 -4.84847e-13 1)
(1 -0.001 1)
(1 -0.001 -1)
(0.533333 -1.73472e-18 1)
(0.533333 -1.73472e-18 -1)
(0.604093 0.0439842 -1)
(0.60225 0.043961 -1)
(0.83891 0.02325 1)
(0.848921 0.0220549 1)
(0.60225 0.043961 1)
(0.604093 0.0439842 1)
(0.598843 0.0437884 -1)
(0.598843 0.0437884 1)
(0.83891 0.02325 -1)
(0.81497 0.02601 -1)
(0.596917 0.0436205 -1)
(0.596917 0.0436205 1)
(0.593282 0.0431727 -1)
(0.81497 0.02601 1)
(0.808799 0.0267 1)
(0.808799 0.0267 -1)
(0.79064 0.02868 -1)
(0.593282 0.0431727 1)
(0.591265 0.0428533 -1)
(0.587493 0.0421246 -1)
(0.591265 0.0428533 1)
(0.79064 0.02868 1)
(0.587493 0.0421246 1)
(0.58542 0.0416526 -1)
(0.581577 0.0406457 -1)
(0.770848 0.030747 1)
(0.770848 0.030747 -1)
(0.58542 0.0416526 1)
(0.99166 0.0023 1)
(0.99166 0.0023 -1)
(0.581577 0.0406457 1)
(0.76608 0.03123 1)
(0.76608 0.03123 -1)
(0.579485 0.0400252 -1)
(0.579485 0.0400252 1)
(0.97674 0.00458 -1)
(0.575643 0.0387524 -1)
(0.74148 0.03363 1)
(0.74148 0.03363 -1)
(0.575643 0.0387524 1)
(0.573571 0.0379927 -1)
(0.569802 0.0364755 -1)
(0.573571 0.0379927 1)
(0.97674 0.00458 1)
(0.962868 0.00666061 -1)
(0.569802 0.0364755 1)
(0.731411 0.034569 1)
(0.731411 0.034569 -1)
(0.56963 0.0364018 1)
(0.56963 0.0364018 -1)
(0.565826 0.0346755 -1)
(0.71697 0.03587 1)
(0.71697 0.03587 -1)
(0.565826 0.0346755 1)
(0.564152 0.0338526 -1)
(0.962868 0.00666061 1)
(0.95781 0.00741 -1)
(0.93457 0.01078 -1)
(0.560805 0.0320837 -1)
(0.564152 0.0338526 1)
(0.695743 0.0376798 1)
(0.695743 0.0376798 -1)
(0.95781 0.00741 1)
(0.925694 0.0120356 -1)
(0.560805 0.0320837 1)
(0.559223 0.0311865 -1)
(0.555961 0.0291998 -1)
(0.69257 0.03794 -1)
(0.69257 0.03794 1)
(0.559223 0.0311865 1)
(0.555961 0.0291998 1)
(0.554621 0.0283259 -1)
(0.93457 0.01078 1)
(0.66822 0.03985 -1)
(0.66822 0.03985 1)
(0.656645 0.0407032 -1)
(0.554621 0.0283259 1)
(0.55162 0.026233 -1)
(0.55162 0.026233 1)
(0.550399 0.0253215 1)
(0.550399 0.0253215 -1)
(0.64388 0.0416 -1)
(0.656645 0.0407032 1)
(0.547693 0.0231583 1)
(0.547693 0.0231583 -1)
(0.925694 0.0120356 1)
(0.91029 0.01417 -1)
(0.546602 0.0222244 1)
(0.546602 0.0222244 -1)
(0.54421 0.0200258 1)
(0.54421 0.0200258 -1)
(0.64388 0.0416 1)
(0.543257 0.0190838 1)
(0.543257 0.0190838 -1)
(0.91029 0.01417 1)
(0.888092 0.0171355 -1)
(0.54119 0.0168822 1)
(0.54119 0.0168822 -1)
(0.540377 0.0159452 -1)
(0.622791 0.042977 -1)
(0.540377 0.0159452 1)
(0.538638 0.0137692 -1)
(0.622791 0.042977 1)
(0.538638 0.0137692 1)
(0.537964 0.0128486 1)
(0.537964 0.0128486 -1)
(0.888092 0.0171355 1)
(0.88614 0.01739 -1)
(0.61951 0.04318 -1)
(0.61951 0.04318 1)
(0.537189 0.0117229 1)
(0.537189 0.0117229 -1)
(0.536007 0.0098274 -1)
(0.536007 0.0098274 1)
(0.535932 0.00969697 -1)
(0.534866 0.00755581 -1)
(0.535932 0.00969697 1)
(0.534866 0.00755581 1)
(0.610039 0.0437462 -1)
(0.610039 0.0437462 1)
(0.534815 0.00743467 1)
(0.534815 0.00743467 -1)
(0.88614 0.01739 1)
(0.86253 0.02039 -1)
(0.534039 0.00518309 -1)
(0.534039 0.00518309 1)
(0.533996 0.0050255 -1)
(0.533996 0.0050255 1)
(0.533509 0.00260426 -1)
(0.533509 0.00260426 1)
(0.533498 0.00252364 -1)
(0.533498 0.00252364 1)
(0.607263 0.0438995 -1)
(0.607263 0.0438995 1)
(0.86253 0.02039 1)
(0.848921 0.0220549 -1)
(0.604093 -0.0439842 -1)
(0.60225 -0.043961 -1)
(0.60225 -0.043961 1)
(0.604093 -0.0439842 1)
(0.598843 -0.0437884 -1)
(0.598843 -0.0437884 1)
(0.83891 -0.02325 1)
(0.848921 -0.0220549 1)
(0.81497 -0.02601 1)
(0.83891 -0.02325 -1)
(0.81497 -0.02601 -1)
(0.596917 -0.0436205 -1)
(0.596917 -0.0436205 1)
(0.593282 -0.0431727 -1)
(0.591265 -0.0428533 -1)
(0.808799 -0.0267 1)
(0.808799 -0.0267 -1)
(0.79064 -0.02868 -1)
(0.593282 -0.0431727 1)
(0.591265 -0.0428533 1)
(0.79064 -0.02868 1)
(0.99166 -0.0023 -1)
(0.587493 -0.0421246 -1)
(0.58542 -0.0416526 -1)
(0.587493 -0.0421246 1)
(0.581577 -0.0406457 -1)
(0.58542 -0.0416526 1)
(0.770848 -0.030747 1)
(0.770848 -0.030747 -1)
(0.76608 -0.03123 -1)
(0.97674 -0.00458 -1)
(0.579485 -0.0400252 -1)
(0.581577 -0.0406457 1)
(0.76608 -0.03123 1)
(0.575643 -0.0387524 -1)
(0.99166 -0.0023 1)
(0.579485 -0.0400252 1)
(0.573571 -0.0379927 -1)
(0.74148 -0.03363 -1)
(0.575643 -0.0387524 1)
(0.573571 -0.0379927 1)
(0.569802 -0.0364755 -1)
(0.97674 -0.00458 1)
(0.962868 -0.00666061 -1)
(0.74148 -0.03363 1)
(0.731411 -0.034569 1)
(0.731411 -0.034569 -1)
(0.71697 -0.03587 -1)
(0.569802 -0.0364755 1)
(0.56963 -0.0364018 1)
(0.56963 -0.0364018 -1)
(0.71697 -0.03587 1)
(0.565826 -0.0346755 -1)
(0.565826 -0.0346755 1)
(0.962868 -0.00666061 1)
(0.95781 -0.00741 -1)
(0.564152 -0.0338526 1)
(0.564152 -0.0338526 -1)
(0.695743 -0.0376798 -1)
(0.560805 -0.0320837 1)
(0.560805 -0.0320837 -1)
(0.695743 -0.0376798 1)
(0.95781 -0.00741 1)
(0.93457 -0.01078 -1)
(0.559223 -0.0311865 1)
(0.559223 -0.0311865 -1)
(0.69257 -0.03794 -1)
(0.69257 -0.03794 1)
(0.66822 -0.03985 -1)
(0.555961 -0.0291998 1)
(0.555961 -0.0291998 -1)
(0.554621 -0.0283259 -1)
(0.93457 -0.01078 1)
(0.925694 -0.0120356 -1)
(0.66822 -0.03985 1)
(0.554621 -0.0283259 1)
(0.55162 -0.026233 -1)
(0.55162 -0.026233 1)
(0.550399 -0.0253215 1)
(0.550399 -0.0253215 -1)
(0.547693 -0.0231583 -1)
(0.656645 -0.0407032 -1)
(0.547693 -0.0231583 1)
(0.925694 -0.0120356 1)
(0.91029 -0.01417 -1)
(0.546602 -0.0222244 -1)
(0.546602 -0.0222244 1)
(0.656645 -0.0407032 1)
(0.54421 -0.0200258 1)
(0.54421 -0.0200258 -1)
(0.64388 -0.0416 -1)
(0.622791 -0.042977 -1)
(0.64388 -0.0416 1)
(0.543257 -0.0190838 1)
(0.543257 -0.0190838 -1)
(0.91029 -0.01417 1)
(0.888092 -0.0171355 -1)
(0.54119 -0.0168822 -1)
(0.540377 -0.0159452 -1)
(0.622791 -0.042977 1)
(0.54119 -0.0168822 1)
(0.540377 -0.0159452 1)
(0.538638 -0.0137692 -1)
(0.538638 -0.0137692 1)
(0.537964 -0.0128486 -1)
(0.888092 -0.0171355 1)
(0.88614 -0.01739 -1)
(0.61951 -0.04318 -1)
(0.537964 -0.0128486 1)
(0.610039 -0.0437462 -1)
(0.537189 -0.0117229 -1)
(0.536007 -0.0098274 -1)
(0.537189 -0.0117229 1)
(0.536007 -0.0098274 1)
(0.535932 -0.00969697 1)
(0.535932 -0.00969697 -1)
(0.61951 -0.04318 1)
(0.534866 -0.00755581 1)
(0.534866 -0.00755581 -1)
(0.610039 -0.0437462 1)
(0.534815 -0.00743467 1)
(0.534815 -0.00743467 -1)
(0.88614 -0.01739 1)
(0.86253 -0.02039 -1)
(0.534039 -0.00518309 1)
(0.534039 -0.00518309 -1)
(0.533996 -0.0050255 1)
(0.533996 -0.0050255 -1)
(0.533509 -0.00260426 1)
(0.533509 -0.00260426 -1)
(0.533498 -0.00252364 1)
(0.533498 -0.00252364 -1)
(0.607263 -0.0438995 -1)
(0.86253 -0.02039 1)
(0.848921 -0.0220549 -1)
(0.607263 -0.0438995 1)
)


// edges:

282
(
(0 1)
(4 5)
(8 9)
(10 11)
(12 13)
(9 14)
(15 12)
(16 17)
(14 18)
(19 15)
(18 20)
(21 10)
(22 21)
(17 23)
(23 24)
(25 19)
(20 26)
(26 27)
(28 25)
(29 22)
(30 28)
(27 31)
(31 32)
(33 29)
(24 34)
(35 30)
(36 0)
(1 37)
(38 35)
(39 33)
(34 40)
(32 41)
(42 38)
(37 43)
(41 44)
(45 39)
(40 46)
(47 42)
(44 48)
(48 49)
(50 47)
(51 36)
(43 52)
(53 50)
(54 45)
(46 55)
(56 53)
(49 57)
(57 58)
(59 54)
(55 60)
(61 56)
(58 62)
(63 51)
(52 64)
(64 65)
(62 66)
(67 61)
(68 59)
(60 69)
(70 63)
(65 71)
(72 67)
(66 73)
(73 74)
(69 75)
(76 68)
(77 72)
(78 77)
(74 79)
(80 70)
(75 81)
(82 76)
(81 83)
(84 78)
(79 85)
(86 84)
(87 86)
(85 88)
(83 89)
(90 82)
(91 87)
(88 92)
(93 80)
(71 94)
(95 91)
(92 96)
(97 95)
(96 98)
(99 90)
(100 97)
(98 101)
(102 93)
(94 103)
(104 100)
(101 105)
(105 106)
(89 107)
(108 104)
(106 109)
(110 99)
(111 108)
(112 111)
(109 113)
(114 102)
(103 115)
(107 116)
(117 110)
(118 112)
(113 119)
(119 120)
(121 118)
(120 122)
(122 123)
(124 121)
(125 124)
(116 126)
(127 117)
(128 125)
(123 129)
(130 114)
(115 131)
(129 132)
(133 128)
(132 134)
(135 133)
(134 136)
(137 135)
(136 138)
(138 2)
(139 137)
(126 140)
(3 139)
(2 3)
(141 127)
(142 130)
(11 142)
(131 143)
(143 16)
(140 8)
(13 141)
(144 145)
(146 147)
(145 148)
(149 146)
(150 151)
(152 150)
(153 154)
(148 155)
(156 149)
(155 157)
(157 158)
(159 152)
(154 160)
(160 161)
(162 156)
(163 162)
(164 159)
(5 165)
(158 166)
(166 167)
(168 163)
(167 169)
(170 168)
(171 164)
(161 172)
(172 173)
(165 174)
(169 175)
(176 170)
(177 171)
(175 178)
(179 4)
(180 176)
(178 181)
(173 182)
(183 180)
(184 183)
(181 185)
(186 179)
(174 187)
(188 177)
(189 188)
(182 190)
(190 191)
(192 184)
(193 192)
(185 194)
(195 189)
(194 196)
(197 193)
(198 186)
(187 199)
(200 197)
(196 201)
(191 202)
(203 200)
(201 204)
(205 195)
(206 198)
(199 207)
(208 203)
(204 209)
(202 210)
(211 205)
(210 212)
(213 208)
(209 214)
(214 215)
(216 206)
(207 217)
(218 211)
(219 213)
(215 220)
(221 219)
(222 221)
(220 223)
(223 224)
(212 225)
(226 222)
(227 216)
(217 228)
(224 229)
(230 226)
(231 218)
(232 230)
(229 233)
(225 234)
(234 235)
(236 231)
(237 232)
(233 238)
(239 227)
(228 240)
(238 241)
(241 242)
(243 236)
(244 237)
(245 244)
(242 246)
(247 245)
(246 248)
(249 239)
(240 250)
(235 251)
(252 247)
(251 253)
(248 254)
(254 255)
(256 252)
(257 256)
(258 257)
(255 259)
(260 243)
(261 258)
(259 262)
(263 260)
(264 261)
(262 265)
(266 249)
(250 267)
(268 264)
(265 269)
(270 268)
(269 271)
(272 270)
(271 273)
(274 272)
(273 275)
(253 276)
(6 274)
(275 7)
(7 6)
(277 266)
(151 277)
(267 278)
(278 153)
(279 263)
(276 144)
(147 279)
(1 5)
(4 0)
)

// * * * * * * * * * * * * * * * * * * * * * * * * * * * * * * * * * * * * * //


// ************************************************************************* //
