/*--------------------------------*- C++ -*----------------------------------*\
| =========                 |                                                 |
| \\      /  F ield         | OpenFOAM: The Open Source CFD Toolbox           |
|  \\    /   O peration     | Version:  v2012                                 |
|   \\  /    A nd           | Website:  www.openfoam.com                      |
|    \\/     M anipulation  |                                                 |
\*---------------------------------------------------------------------------*/
FoamFile
{
    version     2.0;
    format      ascii;
    class       polyBoundaryMesh;
    location    "constant/polyMesh";
    object      boundary;
}
// * * * * * * * * * * * * * * * * * * * * * * * * * * * * * * * * * * * * * //

5
(
    flap
    {
        type            wall;
        inGroups        1(wall);
        nFaces          0;
        startFace       10006;
    }
    freestream
    {
        type            patch;
        nFaces          32;
        startFace       10006;
    }
    main
    {
        type            wall;
        inGroups        1(wall);
        nFaces          231;
        startFace       10038;
    }
    BaseAndTop
    {
        type            empty;
        inGroups        1(empty);
        nFaces          12640;
        startFace       10269;
    }
    procBoundary0to1
    {
        type            processor;
        inGroups        1(processor);
        nFaces          150;
        startFace       22909;
        matchTolerance  0.0001;
        transform       unknown;
        myProcNo        0;
        neighbProcNo    1;
    }
)

// ************************************************************************* //
