FoamFile
{
    version     2.0;
    format      ascii;
    class       polyBoundaryMesh;
    location    "constant/polyMesh";
    object      boundary;
}

3         
(
    airfoil
    {
        type wall;
        nFaces 308;
        startFace 25197;
    }
    freestream
    {
        type patch;
        nFaces 83;
        startFace 25505;
    }
    BaseAndTop
    {
        type empty;
        nFaces 32514;
        startFace 25588;
    }
)
