/*--------------------------------*- C++ -*----------------------------------*\
| =========                 |                                                 |
| \\      /  F ield         | OpenFOAM: The Open Source CFD Toolbox           |
|  \\    /   O peration     | Version:  v2012                                 |
|   \\  /    A nd           | Website:  www.openfoam.com                      |
|    \\/     M anipulation  |                                                 |
\*---------------------------------------------------------------------------*/
FoamFile
{
    version     2.0;
    format      ascii;
    class       volScalarField;
    location    "0";
    object      kl;
}
// * * * * * * * * * * * * * * * * * * * * * * * * * * * * * * * * * * * * * //

dimensions      [0 2 -2 0 0 0 0];


internalField   uniform 0;

boundaryField
{
    flap
    {
        type            kqRWallFunction;
        value           uniform 0;
    }
    freestream
    {
        type            freestream;
        freestreamValue uniform 0;
        value           uniform 0;
    }
    main
    {
        type            kqRWallFunction;
        value           uniform 0;
    }
    BaseAndTop
    {
        type            empty;
    }
}


// ************************************************************************* //
