/*--------------------------------*- C++ -*----------------------------------*\
| =========                 |                                                 |
| \\      /  F ield         | OpenFOAM: The Open Source CFD Toolbox           |
|  \\    /   O peration     | Version:  v2012                                 |
|   \\  /    A nd           | Web:      www.OpenFOAM.com                      |
|    \\/     M anipulation  |                                                 |
\*---------------------------------------------------------------------------*/
FoamFile
{
    version     2.0;
    format      ascii;
    class       volScalarField;
    location    "0";
    object      k;
}
// * * * * * * * * * * * * * * * * * * * * * * * * * * * * * * * * * * * * * //

dimensions      [0 2 -2 0 0 0 0];

internalField   uniform 1e-6;

boundaryField
{
    freestream
    {
        type            turbulentIntensityKineticEnergyInlet;
        intensity       0.005;
        value           uniform 0.005;
    }
    airfoil
    {
        type            kqRWallFunction;
        value           uniform 0;
    }
    BaseAndTop
    {
        type            empty;
    }
}