/*--------------------------------*- C++ -*----------------------------------*\
| =========                 |                                                 |
| \\      /  F ield         | OpenFOAM: The Open Source CFD Toolbox           |
|  \\    /   O peration     | Version:  v2012                                 |
|   \\  /    A nd           | Web:      www.OpenFOAM.com                      |
|    \\/     M anipulation  |                                                 |
\*---------------------------------------------------------------------------*/
FoamFile
{
    version     2.0;
    format      ascii;
    class       dictionary;
    location    "constant";
    object      transportProperties;
}
// * * * * * * * * * * * * * * * * * * * * * * * * * * * * * * * * * * * * * //

phases (vapour water);

water
{
    transportModel Newtonian;
    nu             1.0518e-3; // at 18ºC from engineeringToolBox.com
    rho            998.57;
}

vapour
{
    transportModel Newtonian;
    nu             9.72e-6; // https://www.peacesoftware.de/einigewerte/calc_dampf.php7
    rho            0.01703;   // 2300 Pa 20ºC
}


// ************************************************************************* //
