/*--------------------------------*- C++ -*----------------------------------*\
| =========                 |                                                 |
| \\      /  F ield         | OpenFOAM: The Open Source CFD Toolbox           |
|  \\    /   O peration     | Version:  7                                     |
|   \\  /    A nd           | Web:      www.OpenFOAM.com                      |
|    \\/     M anipulation  |                                                 |
\*---------------------------------------------------------------------------*/
FoamFile
{
    version     2.0;
    format      ascii;
    class       dictionary;
    object      dynamicMeshDict;
}
// * * * * * * * * * * * * * * * * * * * * * * * * * * * * * * * * * * * * * //

dynamicFvMesh       dynamicOversetFvMesh;

dynamicOversetFvMeshCoeffs
{
//    layerRelax 0.3;
}

//motionSolverLibs ( "libfvMotionSolvers.so" );
//
//solver          displacementLaplacian;
//
//displacementLaplacianCoeffs
//{
//    diffusivity     uniform 1;
//}

solver          multiSolidBodyMotionSolver;

multiSolidBodyMotionSolverCoeffs
{
    movingZone
    {
        solidBodyMotionFunction axisRotationMotion;
	axisRotationMotionCoeffs
	{
	origin		(0.5828 0 0.5);
	radialVelocity  ( 0 0 -20);
       // CofG         (0.5828 -0.5 0);
       // timeDataFileName "$FOAM_CASE/constant/6DoF.dat";
	}
    }
}

// ************************************************************************* //
