/*--------------------------------*- C++ -*----------------------------------*\
| =========                 |                                                 |
| \\      /  F ield         | OpenFOAM: The Open Source CFD Toolbox           |
|  \\    /   O peration     | Version:  2106                                  |
|   \\  /    A nd           | Website:  www.openfoam.com                      |
|    \\/     M anipulation  |                                                 |
\*---------------------------------------------------------------------------*/
FoamFile
{
    version     2.0;
    format      ascii;
    arch        "LSB;label=32;scalar=64";
    class       extendedFeatureEdgeMesh;
    location    "constant/extendedFeatureEdgeMesh";
    object      airfoil_scaled.extendedFeatureEdgeMesh;
}
// * * * * * * * * * * * * * * * * * * * * * * * * * * * * * * * * * * * * * //

// points

272
(
(0.495758 0.0486729 1)
(0.495758 0.0486729 -1)
(0.495758 -0.0486729 -1)
(0.495758 -0.0486729 1)
(0.072283 0.0312713 1)
(0.0816603 0.0327746 1)
(0.0816603 0.0327746 -1)
(0.072283 0.0312713 -1)
(0.0646956 0.0299665 1)
(0.0646956 0.0299665 -1)
(0.319754 0.0490728 1)
(0.32629 0.04922 1)
(0.0586822 0.0288731 -1)
(0.0586822 0.0288731 1)
(0.30189 0.04861 1)
(0.30189 0.04861 -1)
(0.285685 0.0481125 -1)
(0.0496676 0.0271155 -1)
(0.0496676 0.0271155 1)
(0.04517 0.02617 1)
(0.04517 0.02617 -1)
(0.285685 0.0481125 1)
(0.27747 0.04783 -1)
(0.0391204 0.0247992 1)
(0.0391204 0.0247992 -1)
(0.036373 0.0241291 1)
(0.27747 0.04783 1)
(0.253256 0.0468703 -1)
(0.036373 0.0241291 -1)
(0.0310979 0.0227323 1)
(0.0310979 0.0227323 -1)
(0.253256 0.0468703 1)
(0.25302 0.04686 1)
(0.25302 0.04686 -1)
(0.0285129 0.0219814 1)
(0.0285129 0.0219814 -1)
(0.47288 0.04923 1)
(0.47288 0.04923 -1)
(0.0248429 0.0208179 -1)
(0.22857 0.0457 1)
(0.22857 0.0457 -1)
(0.0248429 0.0208179 1)
(0.0237602 0.0204487 1)
(0.0237602 0.0204487 -1)
(0.0192528 0.0187511 -1)
(0.458168 0.0495112 -1)
(0.0192528 0.0187511 1)
(0.217833 0.0451329 1)
(0.217833 0.0451329 -1)
(0.20417 0.04436 -1)
(0.01908 0.01868 -1)
(0.01908 0.01868 1)
(0.0147201 0.0166995 -1)
(0.458168 0.0495112 1)
(0.44844 0.04966 -1)
(0.0147201 0.0166995 1)
(0.20417 0.04436 1)
(0.0145779 0.0166279 -1)
(0.0110671 0.01468 -1)
(0.0145779 0.0166279 1)
(0.0110671 0.01468 1)
(0.185265 0.0431876 -1)
(0.44844 0.04966 1)
(0.424332 0.0499076 -1)
(0.0109691 0.0146199 -1)
(0.0109691 0.0146199 1)
(0.185265 0.0431876 1)
(0.0079545 0.0125702 1)
(0.0079545 0.0125702 -1)
(0.1799 0.04283 1)
(0.1799 0.04283 -1)
(0.00787427 0.0125094 -1)
(0.159828 0.0413658 -1)
(0.00787427 0.0125094 1)
(0.00596415 0.0109358 1)
(0.424332 0.0499076 1)
(0.00596415 0.0109358 -1)
(0.00536646 0.0103836 -1)
(0.42399 0.04991 -1)
(0.00536646 0.0103836 1)
(0.00414 0.00913 -1)
(0.159828 0.0413658 1)
(0.15588 0.04105 -1)
(0.00414 0.00913 1)
(0.00339037 0.00826037 -1)
(0.00339037 0.00826037 1)
(0.0030407 0.00781961 1)
(0.42399 0.04991 1)
(0.0030407 0.00781961 -1)
(0.00206 0.00642 -1)
(0.39954 0.05 -1)
(0.15588 0.04105 1)
(0.00206 0.00642 1)
(0.00189448 0.00615257 -1)
(0.00189448 0.00615257 1)
(0.00133638 0.0051528 -1)
(0.00133638 0.0051528 1)
(0.00084505 0.0040848 1)
(0.137158 0.0394129 -1)
(0.00084505 0.0040848 -1)
(0.00074 0.00382 -1)
(0.39954 0.05 1)
(0.388923 0.0499871 -1)
(0.00074 0.00382 1)
(0.000334244 0.00256456 -1)
(0.000334244 0.00256456 1)
(0.000225895 0.00211101 -1)
(8e-05 0.00127 -1)
(0.137158 0.0394129 1)
(0.000225895 0.00211101 1)
(8e-05 0.00127 1)
(5.48468e-05 0.00106011 -1)
(0.1322 0.03894 1)
(0.1322 0.03894 -1)
(5.48468e-05 0.00106011 1)
(-3.00011e-06 -3.39256e-06 -1)
(-3.00011e-06 -3.39256e-06 1)
(0.388923 0.0499871 1)
(0.37511 0.04992 -1)
(0.115234 0.0371803 1)
(0.115234 0.0371803 -1)
(0.111617 0.0367716 -1)
(0.111617 0.0367716 1)
(0.37511 0.04992 1)
(0.355941 0.0497312 -1)
(0.0987708 0.0352015 -1)
(0.355941 0.0497312 1)
(0.3507 0.04966 -1)
(0.0987708 0.0352015 1)
(0.0970515 0.0349758 1)
(0.0970515 0.0349758 -1)
(0.08594 0.03342 1)
(0.08594 0.03342 -1)
(0.3507 0.04966 1)
(0.32629 0.04922 -1)
(0.319754 0.0490728 -1)
(0.00356361 -0.00847497 -1)
(0.00508375 -0.0101259 -1)
(0.0542629 -0.0280687 1)
(0.04517 -0.02617 1)
(0.0568087 -0.0285642 -1)
(0.0677238 -0.0305443 -1)
(0.00508375 -0.0101259 1)
(0.00356361 -0.00847497 1)
(0.0568087 -0.0285642 1)
(0.00530388 -0.0103412 -1)
(0.0677238 -0.0305443 1)
(0.00530388 -0.0103412 1)
(0.0685087 -0.0306785 -1)
(0.00698124 -0.0118354 -1)
(0.0685087 -0.0306785 1)
(0.0772163 -0.0321033 -1)
(0.00698124 -0.0118354 1)
(0.0772163 -0.0321033 1)
(0.00722 -0.01203 -1)
(0.00978842 -0.0139068 -1)
(0.0834326 -0.0330523 -1)
(0.0834326 -0.0330523 1)
(0.00722 -0.01203 1)
(0.08594 -0.03342 -1)
(0.08594 -0.03342 1)
(8e-05 -0.00127 -1)
(0.097106 -0.0349595 -1)
(0.0974165 -0.0350001 -1)
(0.00978842 -0.0139068 1)
(0.097106 -0.0349595 1)
(0.0100747 -0.014095 1)
(0.0100747 -0.014095 -1)
(0.0974165 -0.0350001 1)
(0.10891 -0.03643 -1)
(0.11578 -0.0372208 -1)
(0.013102 -0.0158898 -1)
(0.10891 -0.03643 1)
(8e-05 -0.00127 1)
(0.120548 -0.0377439 -1)
(0.11578 -0.0372208 1)
(0.013102 -0.0158898 1)
(0.000194518 -0.00196055 -1)
(0.013131 -0.0159055 -1)
(0.120548 -0.0377439 1)
(0.1322 -0.03894 -1)
(0.013131 -0.0159055 1)
(0.0160537 -0.0173677 -1)
(0.017088 -0.0178364 -1)
(0.1322 -0.03894 1)
(0.000194518 -0.00196055 1)
(0.000334277 -0.00256472 -1)
(0.136741 -0.0393764 -1)
(0.136741 -0.0393764 1)
(0.0160537 -0.0173677 1)
(0.15588 -0.04105 -1)
(0.15588 -0.04105 1)
(0.000334277 -0.00256472 1)
(0.00074 -0.00382 -1)
(0.159693 -0.0413543 -1)
(0.1799 -0.04283 -1)
(0.159693 -0.0413543 1)
(0.017088 -0.0178364 1)
(0.01908 -0.01868 1)
(0.01908 -0.01868 -1)
(0.0212958 -0.0195408 -1)
(0.1799 -0.04283 1)
(0.1855 -0.0432035 -1)
(0.00074 -0.00382 1)
(0.000750504 -0.00384726 -1)
(0.1855 -0.0432035 1)
(0.20417 -0.04436 1)
(0.20417 -0.04436 -1)
(0.2165 -0.0450598 1)
(0.2165 -0.0450598 -1)
(0.0212958 -0.0195408 1)
(0.0242309 -0.0205797 -1)
(0.0242309 -0.0205797 1)
(0.22857 -0.0457 1)
(0.22857 -0.0457 -1)
(0.000750504 -0.00384726 1)
(0.00133626 -0.00515234 -1)
(0.249242 -0.0466929 1)
(0.249242 -0.0466929 -1)
(0.0269482 -0.0214591 -1)
(0.0269482 -0.0214591 1)
(0.0294712 -0.0222191 -1)
(0.25302 -0.04686 1)
(0.25302 -0.04686 -1)
(0.00133626 -0.00515234 1)
(0.27747 -0.04783 -1)
(0.0017367 -0.00588638 -1)
(0.27747 -0.04783 1)
(0.281315 -0.0479649 1)
(0.281315 -0.0479649 -1)
(0.0017367 -0.00588638 1)
(0.30189 -0.04861 -1)
(0.30189 -0.04861 1)
(0.316872 -0.0490041 1)
(0.316872 -0.0490041 -1)
(0.0294712 -0.0222191 1)
(0.00206 -0.00642 -1)
(0.0340233 -0.0234824 -1)
(0.0340233 -0.0234824 1)
(0.32629 -0.04922 -1)
(0.32629 -0.04922 1)
(0.3507 -0.04966 1)
(0.3507 -0.04966 -1)
(0.351081 -0.0496655 -1)
(0.37511 -0.04992 -1)
(0.0372934 -0.0243221 -1)
(0.351081 -0.0496655 1)
(0.37511 -0.04992 1)
(0.387339 -0.0499823 -1)
(0.00206 -0.00642 1)
(0.00317228 -0.00799159 -1)
(0.387339 -0.0499823 1)
(0.39954 -0.05 1)
(0.39954 -0.05 -1)
(0.423931 -0.0499104 -1)
(0.0372934 -0.0243221 1)
(0.043053 -0.0256945 -1)
(0.043053 -0.0256945 1)
(0.423931 -0.0499104 1)
(0.00317228 -0.00799159 1)
(0.42399 -0.04991 1)
(0.42399 -0.04991 -1)
(0.44844 -0.04966 1)
(0.44844 -0.04966 -1)
(0.459355 -0.049491 1)
(0.459355 -0.049491 -1)
(0.47288 -0.04923 -1)
(0.47288 -0.04923 1)
(0.477557 -0.0491271 1)
(0.477557 -0.0491271 -1)
(0.04517 -0.02617 -1)
(0.0542629 -0.0280687 -1)
)

// edges

274
(
(0 1)
(2 3)
(4 5)
(6 7)
(8 4)
(7 9)
(10 11)
(9 12)
(13 8)
(14 10)
(15 16)
(12 17)
(18 13)
(19 18)
(17 20)
(21 14)
(16 22)
(23 19)
(20 24)
(25 23)
(26 21)
(22 27)
(24 28)
(29 25)
(28 30)
(31 26)
(32 31)
(27 33)
(34 29)
(30 35)
(36 0)
(1 37)
(35 38)
(39 32)
(33 40)
(41 34)
(42 41)
(38 43)
(43 44)
(37 45)
(46 42)
(47 39)
(40 48)
(48 49)
(44 50)
(51 46)
(50 52)
(53 36)
(45 54)
(55 51)
(56 47)
(52 57)
(57 58)
(59 55)
(60 59)
(49 61)
(62 53)
(54 63)
(58 64)
(65 60)
(66 56)
(67 65)
(64 68)
(69 66)
(61 70)
(68 71)
(70 72)
(73 67)
(74 73)
(75 62)
(71 76)
(76 77)
(63 78)
(79 74)
(77 80)
(81 69)
(72 82)
(83 79)
(80 84)
(85 83)
(86 85)
(87 75)
(84 88)
(88 89)
(78 90)
(91 81)
(92 86)
(89 93)
(94 92)
(93 95)
(96 94)
(97 96)
(82 98)
(95 99)
(99 100)
(101 87)
(90 102)
(103 97)
(100 104)
(105 103)
(104 106)
(106 107)
(108 91)
(109 105)
(110 109)
(107 111)
(112 108)
(98 113)
(114 110)
(111 115)
(116 114)
(117 101)
(102 118)
(119 112)
(113 120)
(120 121)
(122 119)
(123 117)
(118 124)
(121 125)
(126 123)
(124 127)
(128 122)
(129 128)
(125 130)
(131 129)
(130 132)
(133 126)
(127 134)
(5 131)
(132 6)
(11 133)
(134 135)
(135 15)
(136 137)
(138 139)
(140 141)
(142 143)
(144 138)
(137 145)
(146 144)
(147 142)
(141 148)
(145 149)
(150 146)
(148 151)
(152 147)
(153 150)
(149 154)
(154 155)
(151 156)
(157 153)
(158 152)
(156 159)
(160 157)
(115 161)
(159 162)
(162 163)
(164 158)
(165 160)
(166 164)
(155 167)
(168 165)
(163 169)
(169 170)
(167 171)
(172 168)
(173 116)
(170 174)
(175 172)
(176 166)
(161 177)
(171 178)
(179 175)
(174 180)
(181 176)
(178 182)
(182 183)
(184 179)
(185 173)
(177 186)
(180 187)
(188 184)
(189 181)
(187 190)
(191 188)
(192 185)
(186 193)
(190 194)
(194 195)
(196 191)
(197 189)
(198 197)
(183 199)
(199 200)
(201 196)
(195 202)
(203 192)
(193 204)
(205 201)
(206 205)
(202 207)
(208 206)
(207 209)
(210 198)
(200 211)
(212 210)
(213 208)
(209 214)
(215 203)
(204 216)
(217 213)
(214 218)
(211 219)
(220 212)
(219 221)
(222 217)
(218 223)
(224 215)
(223 225)
(216 226)
(227 222)
(228 227)
(225 229)
(230 224)
(229 231)
(232 228)
(233 232)
(231 234)
(235 220)
(226 236)
(221 237)
(238 235)
(234 239)
(240 233)
(241 240)
(239 242)
(242 243)
(243 244)
(237 245)
(246 241)
(247 246)
(244 248)
(249 230)
(236 250)
(251 247)
(252 251)
(248 253)
(253 254)
(255 238)
(245 256)
(257 255)
(258 252)
(259 249)
(260 258)
(254 261)
(262 260)
(261 263)
(264 262)
(263 265)
(265 266)
(250 136)
(267 264)
(268 267)
(266 269)
(269 2)
(256 270)
(3 268)
(139 257)
(270 271)
(271 140)
(143 259)
(3 0)
(1 2)
)

// concaveStart mixedStart nonFeatureStart
0 0 4
// internalStart flatStart openStart multipleStart
2 2 2 274
// normals

272
(
(-0.158291 0.987392 0)
(-0.158291 0.987392 0)
(-0.169482 0.985533 0)
(-0.169482 0.985533 0)
(-0.0225159 0.999746 0)
(-0.178894 0.983868 0)
(-0.178894 0.983868 0)
(-0.0258979 0.999665 0)
(-0.0306861 0.999529 0)
(-0.191369 0.981518 0)
(-0.191369 0.981518 0)
(-0.205726 0.97861 0)
(-0.205726 0.97861 0)
(-0.0306861 0.999529 0)
(-0.0343679 0.999409 0)
(-0.220991 0.975276 0)
(-0.220991 0.975276 0)
(-0.236957 0.97152 0)
(-0.0343679 0.999409 0)
(-0.0396031 0.999215 0)
(-0.236957 0.97152 0)
(-0.25597 0.966685 0)
(-0.25597 0.966685 0)
(-0.0396031 0.999215 0)
(-0.0436035 0.999049 0)
(-0.0436035 0.999049 0)
(-0.278953 0.960305 0)
(-0.278953 0.960305 0)
(0.0243436 0.999704 0)
(0.0243436 0.999704 0)
(-0.302206 0.953243 0)
(-0.0473905 0.998876 0)
(-0.0473905 0.998876 0)
(-0.302206 0.953243 0)
(-0.322751 0.946484 0)
(-0.322751 0.946484 0)
(-0.352456 0.935828 0)
(0.0191104 0.999817 0)
(-0.352456 0.935828 0)
(-0.0527436 0.998608 0)
(-0.0527436 0.998608 0)
(-0.0564786 0.998404 0)
(-0.380504 0.924779 0)
(-0.380504 0.924779 0)
(-0.413583 0.910467 0)
(0.0191104 0.999817 0)
(0.0152942 0.999883 0)
(-0.413583 0.910467 0)
(-0.0564786 0.998404 0)
(-0.449725 0.893167 0)
(-0.485159 0.874426 0)
(-0.449725 0.893167 0)
(-0.485159 0.874426 0)
(-0.0618965 0.998083 0)
(0.0152942 0.999883 0)
(0.0102698 0.999947 0)
(-0.522786 0.852464 0)
(-0.522786 0.852464 0)
(-0.0618965 0.998083 0)
(-0.562267 0.826956 0)
(-0.562267 0.826956 0)
(-0.0665063 0.997786 0)
(-0.0665063 0.997786 0)
(-0.60398 0.796999 0)
(-0.0727542 0.99735 0)
(-0.60398 0.796999 0)
(-0.635842 0.771819 0)
(0.0102698 0.999947 0)
(-0.635842 0.771819 0)
(-0.678602 0.734506 0)
(0.00702597 0.999975 0)
(-0.678602 0.734506 0)
(-0.714802 0.699327 0)
(-0.0727542 0.99735 0)
(-0.0797352 0.996816 0)
(-0.714802 0.699327 0)
(-0.757432 0.652914 0)
(-0.757432 0.652914 0)
(-0.78341 0.621505 0)
(0.00702597 0.999975 0)
(-0.78341 0.621505 0)
(-0.818964 0.573844 0)
(0.00368093 0.999993 0)
(-0.0797352 0.996816 0)
(-0.818964 0.573844 0)
(-0.850311 0.526281 0)
(-0.850311 0.526281 0)
(-0.873165 0.487425 0)
(-0.873165 0.487425 0)
(-0.908474 0.417941 0)
(-0.0871101 0.996199 0)
(-0.908474 0.417941 0)
(-0.929526 0.368757 0)
(0.00368093 0.999993 0)
(-0.00121509 0.999999 0)
(-0.929526 0.368757 0)
(-0.951537 0.307535 0)
(-0.951537 0.307535 0)
(-0.972632 0.232353 0)
(-0.985284 0.170923 0)
(-0.0871101 0.996199 0)
(-0.972632 0.232353 0)
(-0.985284 0.170923 0)
(-0.992896 0.118989 0)
(-0.0949501 0.995482 0)
(-0.0949501 0.995482 0)
(-0.992896 0.118989 0)
(-0.998524 0.0543125 0)
(-0.998524 0.0543125 0)
(-0.00121509 0.999999 0)
(-0.00485768 0.999988 0)
(-0.103166 0.994664 0)
(-0.103166 0.994664 0)
(-0.11228 0.993677 0)
(-0.11228 0.993677 0)
(-0.00485768 0.999988 0)
(-0.00984883 0.999951 0)
(-0.12132 0.992613 0)
(-0.00984883 0.999951 0)
(-0.0135835 0.999908 0)
(-0.12132 0.992613 0)
(-0.130158 0.991493 0)
(-0.130158 0.991493 0)
(-0.138665 0.990339 0)
(-0.138665 0.990339 0)
(-0.0135835 0.999908 0)
(-0.0180225 0.999838 0)
(-0.149119 0.988819 0)
(-0.149119 0.988819 0)
(-0.0180225 0.999838 0)
(-0.0225159 0.999746 0)
(-0.0258979 0.999665 0)
(-0.735646 -0.677367 -0)
(-0.204403 -0.978887 0)
(-0.178496 -0.983941 -0)
(-0.735646 -0.677367 0)
(-0.191049 -0.981581 -0)
(-0.69922 -0.714906 -0)
(-0.178496 -0.983941 -0)
(-0.69922 -0.714906 0)
(-0.168532 -0.985696 -0)
(-0.665163 -0.746699 -0)
(-0.168532 -0.985696 0)
(-0.16148 -0.986876 -0)
(-0.665163 -0.746699 0)
(-0.16148 -0.986876 0)
(-0.63178 -0.775148 -0)
(-0.589992 -0.807409 -0)
(-0.150914 -0.988547 -0)
(-0.150914 -0.988547 0)
(-0.63178 -0.775148 0)
(-0.145094 -0.989418 -0)
(-0.145094 -0.989418 0)
(-0.99786 -0.0653892 -0)
(-0.136582 -0.990629 -0)
(-0.129661 -0.991558 -0)
(-0.589992 -0.807409 -0)
(-0.136582 -0.990629 0)
(-0.549326 -0.835608 0)
(-0.549326 -0.835608 -0)
(-0.129661 -0.991558 -0)
(-0.123458 -0.99235 -0)
(-0.114354 -0.99344 -0)
(-0.50998 -0.860186 -0)
(-0.123458 -0.99235 0)
(-0.99786 -0.0653892 -0)
(-0.109057 -0.994036 -0)
(-0.114354 -0.99344 -0)
(-0.50998 -0.860186 0)
(-0.986526 -0.163602 -0)
(-0.476088 -0.879398 -0)
(-0.109057 -0.994036 -0)
(-0.102115 -0.994773 -0)
(-0.476088 -0.879398 0)
(-0.447422 -0.894323 -0)
(-0.412754 -0.910842 -0)
(-0.102115 -0.994773 0)
(-0.986526 -0.163602 0)
(-0.974273 -0.225373 -0)
(-0.0956614 -0.995414 -0)
(-0.0956614 -0.995414 0)
(-0.447422 -0.894323 0)
(-0.0871119 -0.996199 -0)
(-0.0871119 -0.996199 0)
(-0.974273 -0.225373 0)
(-0.951533 -0.307548 -0)
(-0.0795531 -0.996831 -0)
(-0.0728353 -0.997344 -0)
(-0.0795531 -0.996831 0)
(-0.412754 -0.910842 -0)
(-0.389966 -0.920829 0)
(-0.389966 -0.920829 -0)
(-0.362117 -0.932133 -0)
(-0.0728353 -0.997344 -0)
(-0.0665483 -0.997783 -0)
(-0.951533 -0.307548 0)
(-0.933123 -0.359558 -0)
(-0.0665483 -0.997783 0)
(-0.0618258 -0.998087 0)
(-0.0618258 -0.998087 -0)
(-0.0566647 -0.998393 0)
(-0.0566647 -0.998393 -0)
(-0.362117 -0.932133 -0)
(-0.333672 -0.942689 -0)
(-0.333672 -0.942689 0)
(-0.052966 -0.998596 0)
(-0.052966 -0.998596 -0)
(-0.933123 -0.359558 0)
(-0.912321 -0.409475 -0)
(-0.0479759 -0.998848 0)
(-0.0479759 -0.998848 -0)
(-0.307907 -0.951416 -0)
(-0.307907 -0.951416 0)
(-0.288427 -0.957502 -0)
(-0.044186 -0.999023 0)
(-0.044186 -0.999023 -0)
(-0.912321 -0.409475 0)
(-0.0396417 -0.999214 -0)
(-0.877868 -0.478902 -0)
(-0.0396417 -0.999214 0)
(-0.035063 -0.999385 0)
(-0.035063 -0.999385 -0)
(-0.877868 -0.478902 0)
(-0.0313383 -0.999509 -0)
(-0.0313383 -0.999509 0)
(-0.0262957 -0.999654 0)
(-0.0262957 -0.999654 -0)
(-0.288427 -0.957502 -0)
(-0.855273 -0.518178 -0)
(-0.267414 -0.963582 -0)
(-0.267414 -0.963582 0)
(-0.0229181 -0.999737 -0)
(-0.0229181 -0.999737 0)
(-0.0180225 -0.999838 0)
(-0.0180225 -0.999838 -0)
(-0.0144295 -0.999896 -0)
(-0.0105908 -0.999944 -0)
(-0.248712 -0.968577 -0)
(-0.0144295 -0.999896 -0)
(-0.0105908 -0.999944 -0)
(-0.00509422 -0.999987 -0)
(-0.855273 -0.518178 0)
(-0.816252 -0.577696 -0)
(-0.00509422 -0.999987 -0)
(-0.00145091 -0.999999 0)
(-0.00145091 -0.999999 -0)
(0.00367349 -0.999993 0)
(-0.248712 -0.968577 0)
(-0.231791 -0.972766 -0)
(-0.231791 -0.972766 0)
(0.00367349 -0.999993 0)
(-0.816252 -0.577696 0)
(0.0067549 -0.999977 0)
(0.0067549 -0.999977 0)
(0.0102244 -0.999948 0)
(0.0102244 -0.999948 0)
(0.0154815 -0.99988 0)
(0.0154815 -0.99988 0)
(0.0192941 -0.999814 0)
(-0.777228 -0.629219 -0)
(0.0192941 -0.999814 0)
(0.021996 -0.999758 0)
(0.021996 -0.999758 0)
(0.0249468 -0.999689 0)
(-0.21915 -0.975691 -0)
(0.0249468 -0.999689 0)
(-0.21915 -0.975691 0)
(-0.204403 -0.978887 -0)
(-0.191049 -0.981581 -0)
(-0.777228 -0.629219 0)
(-1 0 0)
(-1 0 0)
)

// normal volume types

272
(
0
0
0
0
0
0
0
0
0
0
0
0
0
0
0
0
0
0
0
0
0
0
0
0
0
0
0
0
0
0
0
0
0
0
0
0
0
0
0
0
0
0
0
0
0
0
0
0
0
0
0
0
0
0
0
0
0
0
0
0
0
0
0
0
0
0
0
0
0
0
0
0
0
0
0
0
0
0
0
0
0
0
0
0
0
0
0
0
0
0
0
0
0
0
0
0
0
0
0
0
0
0
0
0
0
0
0
0
0
0
0
0
0
0
0
0
0
0
0
0
0
0
0
0
0
0
0
0
0
0
0
0
0
0
0
0
0
0
0
0
0
0
0
0
0
0
0
0
0
0
0
0
0
0
0
0
0
0
0
0
0
0
0
0
0
0
0
0
0
0
0
0
0
0
0
0
0
0
0
0
0
0
0
0
0
0
0
0
0
0
0
0
0
0
0
0
0
0
0
0
0
0
0
0
0
0
0
0
0
0
0
0
0
0
0
0
0
0
0
0
0
0
0
0
0
0
0
0
0
0
0
0
0
0
0
0
0
0
0
0
0
0
0
0
0
0
0
0
0
0
0
0
0
0
0
0
0
0
0
0
0
0
0
0
0
0
0
0
0
0
0
0
)

// normalDirections

274
(
2{1}
2{1}
1(1)
1(1)
1(1)
1(1)
1(1)
1(1)
1(1)
1(1)
1(1)
1(1)
1(1)
1(1)
1(1)
1(1)
1(1)
1(1)
1(1)
1(1)
1(1)
1(1)
1(1)
1(1)
1(1)
1(1)
1(1)
1(1)
1(1)
1(1)
1(1)
1(1)
1(1)
1(1)
1(1)
1(1)
1(1)
1(1)
1(1)
1(1)
1(1)
1(1)
1(1)
1(1)
1(1)
1(1)
1(1)
1(1)
1(1)
1(1)
1(1)
1(1)
1(1)
1(1)
1(1)
1(1)
1(1)
1(1)
1(1)
1(1)
1(1)
1(1)
1(1)
1(1)
1(1)
1(1)
1(1)
1(1)
1(1)
1(1)
1(1)
1(1)
1(1)
1(1)
1(1)
1(1)
1(1)
1(1)
1(1)
1(1)
1(1)
1(1)
1(1)
1(1)
1(1)
1(1)
1(1)
1(1)
1(1)
1(1)
1(1)
1(1)
1(1)
1(1)
1(1)
1(1)
1(1)
1(1)
1(1)
1(1)
1(1)
1(1)
1(1)
1(1)
1(1)
1(1)
1(1)
1(1)
1(1)
1(1)
1(1)
1(1)
1(1)
1(1)
1(1)
1(1)
1(1)
1(1)
1(1)
1(1)
1(1)
1(1)
1(1)
1(1)
1(1)
1(1)
1(1)
1(1)
1(1)
1(1)
1(1)
1(1)
1(1)
1(1)
1(1)
1(1)
1(1)
1(1)
1(1)
1(1)
1(1)
1(1)
1(1)
1(1)
1(1)
1(1)
1(1)
1(1)
1(1)
1(1)
1(1)
1(1)
1(1)
1(1)
1(1)
1(1)
1(1)
1(1)
1(1)
1(1)
1(1)
1(1)
1(1)
1(1)
1(1)
1(1)
1(1)
1(1)
1(1)
1(1)
1(1)
1(1)
1(1)
1(1)
1(1)
1(1)
1(1)
1(1)
1(1)
1(1)
1(1)
1(1)
1(1)
1(1)
1(1)
1(1)
1(1)
1(1)
1(1)
1(1)
1(1)
1(1)
1(1)
1(1)
1(1)
1(1)
1(1)
1(1)
1(1)
1(1)
1(1)
1(1)
1(1)
1(1)
1(1)
1(1)
1(1)
1(1)
1(1)
1(1)
1(1)
1(1)
1(1)
1(1)
1(1)
1(1)
1(1)
1(1)
1(1)
1(1)
1(1)
1(1)
1(1)
1(1)
1(1)
1(1)
1(1)
1(1)
1(1)
1(1)
1(1)
1(1)
1(1)
1(1)
1(1)
1(1)
1(1)
1(1)
1(1)
1(1)
1(1)
1(1)
1(1)
1(1)
1(1)
1(1)
1(1)
1(1)
1(1)
1(1)
1(1)
1(1)
1(1)
1(1)
1(1)
1(1)
1(1)
1(1)
1(1)
1(1)
1(1)
1(1)
1(1)
1(1)
1(1)
1(1)
1(1)
1(1)
1(1)
1(1)
1(1)
1(1)
1(1)
1(1)
)

// edgeNormals

274
(
2(28 270)
2(265 271)
1(0)
1(1)
1(2)
1(3)
1(4)
1(5)
1(6)
1(7)
1(8)
1(9)
1(10)
1(11)
1(12)
1(13)
1(14)
1(15)
1(16)
1(17)
1(18)
1(19)
1(20)
1(21)
1(22)
1(23)
1(24)
1(25)
1(26)
1(27)
1(28)
1(29)
1(30)
1(31)
1(32)
1(33)
1(34)
1(35)
1(36)
1(37)
1(38)
1(39)
1(40)
1(41)
1(42)
1(43)
1(44)
1(45)
1(46)
1(47)
1(48)
1(49)
1(50)
1(51)
1(52)
1(53)
1(54)
1(55)
1(56)
1(57)
1(58)
1(59)
1(60)
1(61)
1(62)
1(63)
1(64)
1(65)
1(66)
1(67)
1(68)
1(69)
1(70)
1(71)
1(72)
1(73)
1(74)
1(75)
1(76)
1(77)
1(78)
1(79)
1(80)
1(81)
1(82)
1(83)
1(84)
1(85)
1(86)
1(87)
1(88)
1(89)
1(90)
1(91)
1(92)
1(93)
1(94)
1(95)
1(96)
1(97)
1(98)
1(99)
1(100)
1(101)
1(102)
1(103)
1(104)
1(105)
1(106)
1(107)
1(108)
1(109)
1(110)
1(111)
1(112)
1(113)
1(114)
1(115)
1(116)
1(117)
1(118)
1(119)
1(120)
1(121)
1(122)
1(123)
1(124)
1(125)
1(126)
1(127)
1(128)
1(129)
1(130)
1(131)
1(132)
1(133)
1(134)
1(135)
1(136)
1(137)
1(138)
1(139)
1(140)
1(141)
1(142)
1(143)
1(144)
1(145)
1(146)
1(147)
1(148)
1(149)
1(150)
1(151)
1(152)
1(153)
1(154)
1(155)
1(156)
1(157)
1(158)
1(159)
1(160)
1(161)
1(162)
1(163)
1(164)
1(165)
1(166)
1(167)
1(168)
1(169)
1(170)
1(171)
1(172)
1(173)
1(174)
1(175)
1(176)
1(177)
1(178)
1(179)
1(180)
1(181)
1(182)
1(183)
1(184)
1(185)
1(186)
1(187)
1(188)
1(189)
1(190)
1(191)
1(192)
1(193)
1(194)
1(195)
1(196)
1(197)
1(198)
1(199)
1(200)
1(201)
1(202)
1(203)
1(204)
1(205)
1(206)
1(207)
1(208)
1(209)
1(210)
1(211)
1(212)
1(213)
1(214)
1(215)
1(216)
1(217)
1(218)
1(219)
1(220)
1(221)
1(222)
1(223)
1(224)
1(225)
1(226)
1(227)
1(228)
1(229)
1(230)
1(231)
1(232)
1(233)
1(234)
1(235)
1(236)
1(237)
1(238)
1(239)
1(240)
1(241)
1(242)
1(243)
1(244)
1(245)
1(246)
1(247)
1(248)
1(249)
1(250)
1(251)
1(252)
1(253)
1(254)
1(255)
1(256)
1(257)
1(258)
1(259)
1(260)
1(261)
1(262)
1(263)
1(264)
1(265)
1(266)
1(267)
1(268)
1(269)
1(270)
1(271)
)

// featurePointNormals

4
(
2(28 270)
2(28 270)
2(265 271)
2(265 271)
)

// featurePointEdges

4
(
3(0 30 272)
3(0 31 273)
3(1 265 273)
3(1 267 272)
)

// regionEdges

272
(
2
3
4
5
6
7
8
9
10
11
12
13
14
15
16
17
18
19
20
21
22
23
24
25
26
27
28
29
30
31
32
33
34
35
36
37
38
39
40
41
42
43
44
45
46
47
48
49
50
51
52
53
54
55
56
57
58
59
60
61
62
63
64
65
66
67
68
69
70
71
72
73
74
75
76
77
78
79
80
81
82
83
84
85
86
87
88
89
90
91
92
93
94
95
96
97
98
99
100
101
102
103
104
105
106
107
108
109
110
111
112
113
114
115
116
117
118
119
120
121
122
123
124
125
126
127
128
129
130
131
132
133
134
135
136
137
138
139
140
141
142
143
144
145
146
147
148
149
150
151
152
153
154
155
156
157
158
159
160
161
162
163
164
165
166
167
168
169
170
171
172
173
174
175
176
177
178
179
180
181
182
183
184
185
186
187
188
189
190
191
192
193
194
195
196
197
198
199
200
201
202
203
204
205
206
207
208
209
210
211
212
213
214
215
216
217
218
219
220
221
222
223
224
225
226
227
228
229
230
231
232
233
234
235
236
237
238
239
240
241
242
243
244
245
246
247
248
249
250
251
252
253
254
255
256
257
258
259
260
261
262
263
264
265
266
267
268
269
270
271
272
273
)



// ************************************************************************* //
