/*--------------------------------*- C++ -*----------------------------------*\
| =========                 |                                                 |
| \\      /  F ield         | OpenFOAM: The Open Source CFD Toolbox           |
|  \\    /   O peration     | Version:  2106                                  |
|   \\  /    A nd           | Website:  www.openfoam.com                      |
|    \\/     M anipulation  |                                                 |
\*---------------------------------------------------------------------------*/
FoamFile
{
    version     2.0;
    format      ascii;
    arch        "LSB;label=32;scalar=64";
    class       extendedFeatureEdgeMesh;
    location    "constant/extendedFeatureEdgeMesh";
    object      flap_scaled.extendedFeatureEdgeMesh;
}
// * * * * * * * * * * * * * * * * * * * * * * * * * * * * * * * * * * * * * //

// points

280
(
(1 0.001 1)
(1 0.001 -1)
(0.533333 -4.84847e-13 -1)
(0.533333 -4.84847e-13 1)
(1 -0.001 1)
(1 -0.001 -1)
(0.533333 -1.73472e-18 1)
(0.533333 -1.73472e-18 -1)
(0.604093 0.0439842 -1)
(0.60225 0.043961 -1)
(0.83891 0.02325 1)
(0.848921 0.0220549 1)
(0.60225 0.043961 1)
(0.604093 0.0439842 1)
(0.598843 0.0437884 -1)
(0.598843 0.0437884 1)
(0.83891 0.02325 -1)
(0.81497 0.02601 -1)
(0.596917 0.0436205 -1)
(0.596917 0.0436205 1)
(0.593282 0.0431727 -1)
(0.81497 0.02601 1)
(0.808799 0.0267 1)
(0.808799 0.0267 -1)
(0.79064 0.02868 -1)
(0.593282 0.0431727 1)
(0.591265 0.0428533 -1)
(0.587493 0.0421246 -1)
(0.591265 0.0428533 1)
(0.79064 0.02868 1)
(0.587493 0.0421246 1)
(0.58542 0.0416526 -1)
(0.581577 0.0406457 -1)
(0.770848 0.030747 1)
(0.770848 0.030747 -1)
(0.58542 0.0416526 1)
(0.99166 0.0023 1)
(0.99166 0.0023 -1)
(0.581577 0.0406457 1)
(0.76608 0.03123 1)
(0.76608 0.03123 -1)
(0.579485 0.0400252 -1)
(0.579485 0.0400252 1)
(0.97674 0.00458 -1)
(0.575643 0.0387524 -1)
(0.74148 0.03363 1)
(0.74148 0.03363 -1)
(0.575643 0.0387524 1)
(0.573571 0.0379927 -1)
(0.569802 0.0364755 -1)
(0.573571 0.0379927 1)
(0.97674 0.00458 1)
(0.962868 0.00666061 -1)
(0.569802 0.0364755 1)
(0.731411 0.034569 1)
(0.731411 0.034569 -1)
(0.56963 0.0364018 1)
(0.56963 0.0364018 -1)
(0.565826 0.0346755 -1)
(0.71697 0.03587 1)
(0.71697 0.03587 -1)
(0.565826 0.0346755 1)
(0.564152 0.0338526 -1)
(0.962868 0.00666061 1)
(0.95781 0.00741 -1)
(0.93457 0.01078 -1)
(0.560805 0.0320837 -1)
(0.564152 0.0338526 1)
(0.695743 0.0376798 1)
(0.695743 0.0376798 -1)
(0.95781 0.00741 1)
(0.925694 0.0120356 -1)
(0.560805 0.0320837 1)
(0.559223 0.0311865 -1)
(0.555961 0.0291998 -1)
(0.69257 0.03794 -1)
(0.69257 0.03794 1)
(0.559223 0.0311865 1)
(0.555961 0.0291998 1)
(0.554621 0.0283259 -1)
(0.93457 0.01078 1)
(0.66822 0.03985 -1)
(0.66822 0.03985 1)
(0.656645 0.0407032 -1)
(0.554621 0.0283259 1)
(0.55162 0.026233 -1)
(0.55162 0.026233 1)
(0.550399 0.0253215 1)
(0.550399 0.0253215 -1)
(0.64388 0.0416 -1)
(0.656645 0.0407032 1)
(0.547693 0.0231583 1)
(0.547693 0.0231583 -1)
(0.925694 0.0120356 1)
(0.91029 0.01417 -1)
(0.546602 0.0222244 1)
(0.546602 0.0222244 -1)
(0.54421 0.0200258 1)
(0.54421 0.0200258 -1)
(0.64388 0.0416 1)
(0.543257 0.0190838 1)
(0.543257 0.0190838 -1)
(0.91029 0.01417 1)
(0.888092 0.0171355 -1)
(0.54119 0.0168822 1)
(0.54119 0.0168822 -1)
(0.540377 0.0159452 -1)
(0.622791 0.042977 -1)
(0.540377 0.0159452 1)
(0.538638 0.0137692 -1)
(0.622791 0.042977 1)
(0.538638 0.0137692 1)
(0.537964 0.0128486 1)
(0.537964 0.0128486 -1)
(0.888092 0.0171355 1)
(0.88614 0.01739 -1)
(0.61951 0.04318 -1)
(0.61951 0.04318 1)
(0.537189 0.0117229 1)
(0.537189 0.0117229 -1)
(0.536007 0.0098274 -1)
(0.536007 0.0098274 1)
(0.535932 0.00969697 -1)
(0.534866 0.00755581 -1)
(0.535932 0.00969697 1)
(0.534866 0.00755581 1)
(0.610039 0.0437462 -1)
(0.610039 0.0437462 1)
(0.534815 0.00743467 1)
(0.534815 0.00743467 -1)
(0.88614 0.01739 1)
(0.86253 0.02039 -1)
(0.534039 0.00518309 -1)
(0.534039 0.00518309 1)
(0.533996 0.0050255 -1)
(0.533996 0.0050255 1)
(0.533509 0.00260426 -1)
(0.533509 0.00260426 1)
(0.533498 0.00252364 -1)
(0.533498 0.00252364 1)
(0.607263 0.0438995 -1)
(0.607263 0.0438995 1)
(0.86253 0.02039 1)
(0.848921 0.0220549 -1)
(0.604093 -0.0439842 -1)
(0.60225 -0.043961 -1)
(0.60225 -0.043961 1)
(0.604093 -0.0439842 1)
(0.598843 -0.0437884 -1)
(0.598843 -0.0437884 1)
(0.83891 -0.02325 1)
(0.848921 -0.0220549 1)
(0.81497 -0.02601 1)
(0.83891 -0.02325 -1)
(0.81497 -0.02601 -1)
(0.596917 -0.0436205 -1)
(0.596917 -0.0436205 1)
(0.593282 -0.0431727 -1)
(0.591265 -0.0428533 -1)
(0.808799 -0.0267 1)
(0.808799 -0.0267 -1)
(0.79064 -0.02868 -1)
(0.593282 -0.0431727 1)
(0.591265 -0.0428533 1)
(0.79064 -0.02868 1)
(0.99166 -0.0023 -1)
(0.587493 -0.0421246 -1)
(0.58542 -0.0416526 -1)
(0.587493 -0.0421246 1)
(0.581577 -0.0406457 -1)
(0.58542 -0.0416526 1)
(0.770848 -0.030747 1)
(0.770848 -0.030747 -1)
(0.76608 -0.03123 -1)
(0.97674 -0.00458 -1)
(0.579485 -0.0400252 -1)
(0.581577 -0.0406457 1)
(0.76608 -0.03123 1)
(0.575643 -0.0387524 -1)
(0.99166 -0.0023 1)
(0.579485 -0.0400252 1)
(0.573571 -0.0379927 -1)
(0.74148 -0.03363 -1)
(0.575643 -0.0387524 1)
(0.573571 -0.0379927 1)
(0.569802 -0.0364755 -1)
(0.97674 -0.00458 1)
(0.962868 -0.00666061 -1)
(0.74148 -0.03363 1)
(0.731411 -0.034569 1)
(0.731411 -0.034569 -1)
(0.71697 -0.03587 -1)
(0.569802 -0.0364755 1)
(0.56963 -0.0364018 1)
(0.56963 -0.0364018 -1)
(0.71697 -0.03587 1)
(0.565826 -0.0346755 -1)
(0.565826 -0.0346755 1)
(0.962868 -0.00666061 1)
(0.95781 -0.00741 -1)
(0.564152 -0.0338526 1)
(0.564152 -0.0338526 -1)
(0.695743 -0.0376798 -1)
(0.560805 -0.0320837 1)
(0.560805 -0.0320837 -1)
(0.695743 -0.0376798 1)
(0.95781 -0.00741 1)
(0.93457 -0.01078 -1)
(0.559223 -0.0311865 1)
(0.559223 -0.0311865 -1)
(0.69257 -0.03794 -1)
(0.69257 -0.03794 1)
(0.66822 -0.03985 -1)
(0.555961 -0.0291998 1)
(0.555961 -0.0291998 -1)
(0.554621 -0.0283259 -1)
(0.93457 -0.01078 1)
(0.925694 -0.0120356 -1)
(0.66822 -0.03985 1)
(0.554621 -0.0283259 1)
(0.55162 -0.026233 -1)
(0.55162 -0.026233 1)
(0.550399 -0.0253215 1)
(0.550399 -0.0253215 -1)
(0.547693 -0.0231583 -1)
(0.656645 -0.0407032 -1)
(0.547693 -0.0231583 1)
(0.925694 -0.0120356 1)
(0.91029 -0.01417 -1)
(0.546602 -0.0222244 -1)
(0.546602 -0.0222244 1)
(0.656645 -0.0407032 1)
(0.54421 -0.0200258 1)
(0.54421 -0.0200258 -1)
(0.64388 -0.0416 -1)
(0.622791 -0.042977 -1)
(0.64388 -0.0416 1)
(0.543257 -0.0190838 1)
(0.543257 -0.0190838 -1)
(0.91029 -0.01417 1)
(0.888092 -0.0171355 -1)
(0.54119 -0.0168822 -1)
(0.540377 -0.0159452 -1)
(0.622791 -0.042977 1)
(0.54119 -0.0168822 1)
(0.540377 -0.0159452 1)
(0.538638 -0.0137692 -1)
(0.538638 -0.0137692 1)
(0.537964 -0.0128486 -1)
(0.888092 -0.0171355 1)
(0.88614 -0.01739 -1)
(0.61951 -0.04318 -1)
(0.537964 -0.0128486 1)
(0.610039 -0.0437462 -1)
(0.537189 -0.0117229 -1)
(0.536007 -0.0098274 -1)
(0.537189 -0.0117229 1)
(0.536007 -0.0098274 1)
(0.535932 -0.00969697 1)
(0.535932 -0.00969697 -1)
(0.61951 -0.04318 1)
(0.534866 -0.00755581 1)
(0.534866 -0.00755581 -1)
(0.610039 -0.0437462 1)
(0.534815 -0.00743467 1)
(0.534815 -0.00743467 -1)
(0.88614 -0.01739 1)
(0.86253 -0.02039 -1)
(0.534039 -0.00518309 1)
(0.534039 -0.00518309 -1)
(0.533996 -0.0050255 1)
(0.533996 -0.0050255 -1)
(0.533509 -0.00260426 1)
(0.533509 -0.00260426 -1)
(0.533498 -0.00252364 1)
(0.533498 -0.00252364 -1)
(0.607263 -0.0438995 -1)
(0.86253 -0.02039 1)
(0.848921 -0.0220549 -1)
(0.607263 -0.0438995 1)
)

// edges

282
(
(0 1)
(4 5)
(8 9)
(10 11)
(12 13)
(9 14)
(15 12)
(16 17)
(14 18)
(19 15)
(18 20)
(21 10)
(22 21)
(17 23)
(23 24)
(25 19)
(20 26)
(26 27)
(28 25)
(29 22)
(30 28)
(27 31)
(31 32)
(33 29)
(24 34)
(35 30)
(36 0)
(1 37)
(38 35)
(39 33)
(34 40)
(32 41)
(42 38)
(37 43)
(41 44)
(45 39)
(40 46)
(47 42)
(44 48)
(48 49)
(50 47)
(51 36)
(43 52)
(53 50)
(54 45)
(46 55)
(56 53)
(49 57)
(57 58)
(59 54)
(55 60)
(61 56)
(58 62)
(63 51)
(52 64)
(64 65)
(62 66)
(67 61)
(68 59)
(60 69)
(70 63)
(65 71)
(72 67)
(66 73)
(73 74)
(69 75)
(76 68)
(77 72)
(78 77)
(74 79)
(80 70)
(75 81)
(82 76)
(81 83)
(84 78)
(79 85)
(86 84)
(87 86)
(85 88)
(83 89)
(90 82)
(91 87)
(88 92)
(93 80)
(71 94)
(95 91)
(92 96)
(97 95)
(96 98)
(99 90)
(100 97)
(98 101)
(102 93)
(94 103)
(104 100)
(101 105)
(105 106)
(89 107)
(108 104)
(106 109)
(110 99)
(111 108)
(112 111)
(109 113)
(114 102)
(103 115)
(107 116)
(117 110)
(118 112)
(113 119)
(119 120)
(121 118)
(120 122)
(122 123)
(124 121)
(125 124)
(116 126)
(127 117)
(128 125)
(123 129)
(130 114)
(115 131)
(129 132)
(133 128)
(132 134)
(135 133)
(134 136)
(137 135)
(136 138)
(138 2)
(139 137)
(126 140)
(3 139)
(2 3)
(141 127)
(142 130)
(11 142)
(131 143)
(143 16)
(140 8)
(13 141)
(144 145)
(146 147)
(145 148)
(149 146)
(150 151)
(152 150)
(153 154)
(148 155)
(156 149)
(155 157)
(157 158)
(159 152)
(154 160)
(160 161)
(162 156)
(163 162)
(164 159)
(5 165)
(158 166)
(166 167)
(168 163)
(167 169)
(170 168)
(171 164)
(161 172)
(172 173)
(165 174)
(169 175)
(176 170)
(177 171)
(175 178)
(179 4)
(180 176)
(178 181)
(173 182)
(183 180)
(184 183)
(181 185)
(186 179)
(174 187)
(188 177)
(189 188)
(182 190)
(190 191)
(192 184)
(193 192)
(185 194)
(195 189)
(194 196)
(197 193)
(198 186)
(187 199)
(200 197)
(196 201)
(191 202)
(203 200)
(201 204)
(205 195)
(206 198)
(199 207)
(208 203)
(204 209)
(202 210)
(211 205)
(210 212)
(213 208)
(209 214)
(214 215)
(216 206)
(207 217)
(218 211)
(219 213)
(215 220)
(221 219)
(222 221)
(220 223)
(223 224)
(212 225)
(226 222)
(227 216)
(217 228)
(224 229)
(230 226)
(231 218)
(232 230)
(229 233)
(225 234)
(234 235)
(236 231)
(237 232)
(233 238)
(239 227)
(228 240)
(238 241)
(241 242)
(243 236)
(244 237)
(245 244)
(242 246)
(247 245)
(246 248)
(249 239)
(240 250)
(235 251)
(252 247)
(251 253)
(248 254)
(254 255)
(256 252)
(257 256)
(258 257)
(255 259)
(260 243)
(261 258)
(259 262)
(263 260)
(264 261)
(262 265)
(266 249)
(250 267)
(268 264)
(265 269)
(270 268)
(269 271)
(272 270)
(271 273)
(274 272)
(273 275)
(253 276)
(6 274)
(275 7)
(7 6)
(277 266)
(151 277)
(267 278)
(278 153)
(279 263)
(276 144)
(147 279)
(1 5)
(4 0)
)

// concaveStart mixedStart nonFeatureStart
0 0 8
// internalStart flatStart openStart multipleStart
1 2 2 282
// normals

278
(
(-0.0125875 0.999921 0)
(0.118537 0.99295 0)
(-0.0125875 0.999921 0)
(-0.0505955 0.998719 0)
(-0.0505955 0.998719 0)
(0.11453 0.99342 0)
(-0.0868453 0.996222 0)
(-0.0868453 0.996222 0)
(-0.122268 0.992497 0)
(0.11453 0.99342 0)
(0.111121 0.993807 0)
(0.111121 0.993807 0)
(0.108394 0.994108 0)
(-0.122268 0.992497 0)
(-0.156408 0.987693 0)
(-0.189679 0.981846 0)
(-0.156408 0.987693 0)
(0.108394 0.994108 0)
(-0.189679 0.981846 0)
(-0.222007 0.975045 0)
(-0.253453 0.967348 0)
(0.103871 0.994591 0)
(0.103871 0.994591 0)
(-0.222007 0.975045 0)
(0.154015 0.988068 0)
(0.154015 0.988068 0)
(-0.253453 0.967348 0)
(0.100786 0.994908 0)
(0.100786 0.994908 0)
(-0.284361 0.958717 0)
(-0.284361 0.958717 0)
(0.151061 0.988524 0)
(-0.314479 0.949265 0)
(0.0970998 0.995275 0)
(0.0970998 0.995275 0)
(-0.314479 0.949265 0)
(-0.344244 0.93888 0)
(-0.373424 0.927661 0)
(-0.344244 0.93888 0)
(0.151061 0.988524 0)
(0.148327 0.988938 0)
(-0.373424 0.927661 0)
(0.0928536 0.99568 0)
(0.0928536 0.99568 0)
(-0.393922 0.919144 0)
(-0.393922 0.919144 0)
(-0.413247 0.910619 0)
(0.0897277 0.995966 0)
(0.0897277 0.995966 0)
(-0.413247 0.910619 0)
(-0.441158 0.89743 0)
(0.148327 0.988938 0)
(0.14656 0.989202 0)
(0.143508 0.989649 0)
(-0.467262 0.884119 0)
(-0.441158 0.89743 0)
(0.084951 0.996385 0)
(0.084951 0.996385 0)
(0.14656 0.989202 0)
(0.140065 0.990142 0)
(-0.467262 0.884119 0)
(-0.493312 0.869853 0)
(-0.520166 0.854065 0)
(0.0817288 0.996655 0)
(0.0817288 0.996655 0)
(-0.493312 0.869853 0)
(-0.520166 0.854065 0)
(-0.546253 0.83762 0)
(0.143508 0.989649 0)
(0.0781993 0.996938 0)
(0.0781993 0.996938 0)
(0.0735112 0.997294 0)
(-0.546253 0.83762 0)
(-0.572034 0.82023 0)
(-0.572034 0.82023 0)
(-0.598213 0.801337 0)
(-0.598213 0.801337 0)
(0.0700819 0.997541 0)
(0.0735112 0.997294 0)
(-0.624415 0.781093 0)
(-0.624415 0.781093 0)
(0.140065 0.990142 0)
(0.13725 0.990536 0)
(-0.650291 0.759685 0)
(-0.650291 0.759685 0)
(-0.676717 0.736243 0)
(-0.676717 0.736243 0)
(0.0700819 0.997541 0)
(-0.702984 0.711206 0)
(-0.702984 0.711206 0)
(0.13725 0.990536 0)
(0.132417 0.991194 0)
(-0.729046 0.684464 0)
(-0.729046 0.684464 0)
(-0.755314 0.655363 0)
(0.065156 0.997875 0)
(-0.755314 0.655363 0)
(-0.78118 0.624306 0)
(0.065156 0.997875 0)
(-0.78118 0.624306 0)
(-0.806863 0.590738 0)
(-0.806863 0.590738 0)
(0.132417 0.991194 0)
(0.129285 0.991608 0)
(0.0617529 0.998091 0)
(0.0617529 0.998091 0)
(-0.823679 0.567056 0)
(-0.823679 0.567056 0)
(-0.848535 0.52914 0)
(-0.848535 0.52914 0)
(-0.866948 0.498399 0)
(-0.895187 0.445691 0)
(-0.866948 0.498399 0)
(-0.895187 0.445691 0)
(0.0596759 0.998218 0)
(0.0596759 0.998218 0)
(-0.921756 0.387771 0)
(-0.921756 0.387771 0)
(0.129285 0.991608 0)
(0.126051 0.992024 0)
(-0.945427 0.325835 0)
(-0.945427 0.325835 0)
(-0.964678 0.263433 0)
(-0.964678 0.263433 0)
(-0.980368 0.197176 0)
(-0.980368 0.197176 0)
(-0.990775 0.135514 0)
(-0.99787 0.0652368 0)
(-0.990775 0.135514 0)
(0.0551398 0.998479 0)
(-0.99787 0.0652368 0)
(0.0551398 0.998479 0)
(0.126051 0.992024 0)
(0.121433 0.9926 0)
(0.121433 0.9926 0)
(0.118537 0.99295 0)
(0.0267102 0.999643 0)
(0.0267102 0.999643 0)
(0.0125875 0.999921 0)
(0.0125875 0.999921 0)
(0.0505955 0.998719 0)
(0.0505955 0.998719 0)
(-0.118537 0.99295 0)
(-0.11453 0.99342 0)
(-0.11453 0.99342 0)
(0.0868453 0.996222 0)
(0.0868453 0.996222 0)
(0.122268 0.992497 0)
(0.156408 0.987693 0)
(-0.111121 0.993807 0)
(-0.111121 0.993807 0)
(-0.108394 0.994108 0)
(0.122268 0.992497 0)
(0.156408 0.987693 0)
(-0.108394 0.994108 0)
(-0.154015 0.988068 0)
(0.189679 0.981846 0)
(0.222007 0.975045 0)
(0.189679 0.981846 0)
(0.253453 0.967348 0)
(0.222007 0.975045 0)
(-0.103871 0.994591 0)
(-0.103871 0.994591 0)
(-0.100786 0.994908 0)
(-0.151061 0.988524 0)
(0.284361 0.958717 0)
(0.253453 0.967348 0)
(-0.100786 0.994908 0)
(0.314479 0.949265 0)
(-0.154015 0.988068 0)
(0.284361 0.958717 0)
(0.344244 0.93888 0)
(-0.0970998 0.995275 0)
(0.314479 0.949265 0)
(0.344244 0.93888 0)
(0.373424 0.927661 0)
(-0.151061 0.988524 0)
(-0.148327 0.988938 0)
(-0.0970998 0.995275 0)
(-0.0928536 0.99568 0)
(-0.0928536 0.99568 0)
(-0.0897277 0.995966 0)
(0.373424 0.927661 0)
(0.393922 0.919144 0)
(0.393922 0.919144 0)
(-0.0897277 0.995966 0)
(0.413247 0.910619 0)
(0.413247 0.910619 0)
(-0.148327 0.988938 0)
(-0.14656 0.989202 0)
(0.441158 0.89743 0)
(0.441158 0.89743 0)
(-0.084951 0.996385 0)
(0.467262 0.884119 0)
(0.467262 0.884119 0)
(-0.084951 0.996385 0)
(-0.14656 0.989202 0)
(-0.143508 0.989649 0)
(0.493312 0.869853 0)
(0.493312 0.869853 0)
(-0.0817288 0.996655 0)
(-0.0817288 0.996655 0)
(-0.0781993 0.996938 0)
(0.520166 0.854065 0)
(0.520166 0.854065 0)
(0.546253 0.83762 0)
(-0.143508 0.989649 0)
(-0.140065 0.990142 0)
(-0.0781993 0.996938 0)
(0.546253 0.83762 0)
(0.572034 0.82023 0)
(0.572034 0.82023 0)
(0.598213 0.801337 0)
(0.598213 0.801337 0)
(0.624415 0.781093 0)
(-0.0735112 0.997294 0)
(0.624415 0.781093 0)
(-0.140065 0.990142 0)
(-0.13725 0.990536 0)
(0.650291 0.759685 0)
(0.650291 0.759685 0)
(-0.0735112 0.997294 0)
(0.676717 0.736243 0)
(0.676717 0.736243 0)
(-0.0700819 0.997541 0)
(-0.065156 0.997875 0)
(-0.0700819 0.997541 0)
(0.702984 0.711206 0)
(0.702984 0.711206 0)
(-0.13725 0.990536 0)
(-0.132417 0.991194 0)
(0.729046 0.684464 0)
(0.755314 0.655363 0)
(-0.065156 0.997875 0)
(0.729046 0.684464 0)
(0.755314 0.655363 0)
(0.78118 0.624306 0)
(0.78118 0.624306 0)
(0.806863 0.590738 0)
(-0.132417 0.991194 0)
(-0.129285 0.991608 0)
(-0.0617529 0.998091 0)
(0.806863 0.590738 0)
(-0.0596759 0.998218 0)
(0.823679 0.567056 0)
(0.848535 0.52914 0)
(0.823679 0.567056 0)
(0.848535 0.52914 0)
(0.866948 0.498399 0)
(0.866948 0.498399 0)
(-0.0617529 0.998091 0)
(0.895187 0.445691 0)
(0.895187 0.445691 0)
(-0.0596759 0.998218 0)
(0.921756 0.387771 0)
(0.921756 0.387771 0)
(-0.129285 0.991608 0)
(-0.126051 0.992024 0)
(0.945427 0.325835 0)
(0.945427 0.325835 0)
(0.964678 0.263433 0)
(0.964678 0.263433 0)
(0.980368 0.197176 0)
(0.980368 0.197176 0)
(0.990775 0.135514 0)
(0.990775 0.135514 0)
(-0.0551398 0.998479 0)
(0.99787 0.0652368 0)
(0.99787 0.0652368 0)
(-0.126051 0.992024 0)
(-0.121433 0.9926 0)
(-0.121433 0.9926 0)
(-0.118537 0.99295 0)
(-0.0551398 0.998479 0)
(-0.0267102 0.999643 0)
(-0.0267102 0.999643 0)
(-1 0 -0)
(-1 0 0)
)

// normal volume types

278
(
0
0
0
0
0
0
0
0
0
0
0
0
0
0
0
0
0
0
0
0
0
0
0
0
0
0
0
0
0
0
0
0
0
0
0
0
0
0
0
0
0
0
0
0
0
0
0
0
0
0
0
0
0
0
0
0
0
0
0
0
0
0
0
0
0
0
0
0
0
0
0
0
0
0
0
0
0
0
0
0
0
0
0
0
0
0
0
0
0
0
0
0
0
0
0
0
0
0
0
0
0
0
0
0
0
0
0
0
0
0
0
0
0
0
0
0
0
0
0
0
0
0
0
0
0
0
0
0
0
0
0
0
0
0
0
0
0
0
0
0
0
0
0
0
0
0
0
0
0
0
0
0
0
0
0
0
0
0
0
0
0
0
0
0
0
0
0
0
0
0
0
0
0
0
0
0
0
0
0
0
0
0
0
0
0
0
0
0
0
0
0
0
0
0
0
0
0
0
0
0
0
0
0
0
0
0
0
0
0
0
0
0
0
0
0
0
0
0
0
0
0
0
0
0
0
0
0
0
0
0
0
0
0
0
0
0
0
0
0
0
0
0
0
0
0
0
0
0
0
0
0
0
0
0
0
0
0
0
0
0
0
0
0
0
0
0
0
0
0
0
0
0
0
0
0
0
0
0
)

// normalDirections

282
(
2{1}
2(1 -1)
1(1)
1(1)
1(1)
1(1)
1(1)
1(1)
1(1)
1(1)
1(1)
1(1)
1(1)
1(1)
1(1)
1(1)
1(1)
1(1)
1(1)
1(1)
1(1)
1(1)
1(1)
1(1)
1(1)
1(1)
1(1)
1(1)
1(1)
1(1)
1(1)
1(1)
1(1)
1(1)
1(1)
1(1)
1(1)
1(1)
1(1)
1(1)
1(1)
1(1)
1(1)
1(1)
1(1)
1(1)
1(1)
1(1)
1(1)
1(1)
1(1)
1(1)
1(1)
1(1)
1(1)
1(1)
1(1)
1(1)
1(1)
1(1)
1(1)
1(1)
1(1)
1(1)
1(1)
1(1)
1(1)
1(1)
1(1)
1(1)
1(1)
1(1)
1(1)
1(1)
1(1)
1(1)
1(1)
1(1)
1(1)
1(1)
1(1)
1(1)
1(1)
1(1)
1(1)
1(1)
1(1)
1(1)
1(1)
1(1)
1(1)
1(1)
1(1)
1(1)
1(1)
1(1)
1(1)
1(1)
1(1)
1(1)
1(1)
1(1)
1(1)
1(1)
1(1)
1(1)
1(1)
1(1)
1(1)
1(1)
1(1)
1(1)
1(1)
1(1)
1(1)
1(1)
1(1)
1(1)
1(1)
1(1)
1(1)
1(1)
1(1)
1(1)
1(1)
1(1)
1(1)
1(1)
1(1)
1(1)
1(1)
1(1)
1(1)
1(1)
1(1)
1(1)
1(1)
1(1)
1(1)
1(1)
1(1)
1(1)
1(1)
1(1)
1(1)
1(1)
1(1)
1(1)
1(1)
1(1)
1(1)
1(1)
1(1)
1(1)
1(1)
1(1)
1(1)
1(1)
1(1)
1(1)
1(1)
1(1)
1(1)
1(1)
1(1)
1(1)
1(1)
1(1)
1(1)
1(1)
1(1)
1(1)
1(1)
1(1)
1(1)
1(1)
1(1)
1(1)
1(1)
1(1)
1(1)
1(1)
1(1)
1(1)
1(1)
1(1)
1(1)
1(1)
1(1)
1(1)
1(1)
1(1)
1(1)
1(1)
1(1)
1(1)
1(1)
1(1)
1(1)
1(1)
1(1)
1(1)
1(1)
1(1)
1(1)
1(1)
1(1)
1(1)
1(1)
1(1)
1(1)
1(1)
1(1)
1(1)
1(1)
1(1)
1(1)
1(1)
1(1)
1(1)
1(1)
1(1)
1(1)
1(1)
1(1)
1(1)
1(1)
1(1)
1(1)
1(1)
1(1)
1(1)
1(1)
1(1)
1(1)
1(1)
1(1)
1(1)
1(1)
1(1)
1(1)
1(1)
1(1)
1(1)
1(1)
1(1)
1(1)
1(1)
1(1)
1(1)
1(1)
1(1)
1(1)
1(1)
1(1)
1(1)
1(1)
1(1)
1(1)
1(1)
1(1)
1(1)
1(1)
1(1)
1(1)
1(1)
1(1)
1(1)
1(1)
1(1)
1(1)
1(1)
1(1)
1(1)
1(1)
1(1)
1(1)
1(1)
1(1)
1(1)
1(1)
1(1)
)

// edgeNormals

282
(
2(24 276)
2(155 277)
1(0)
1(1)
1(2)
1(3)
1(4)
1(5)
1(6)
1(7)
1(8)
1(9)
1(10)
1(11)
1(12)
1(13)
1(14)
1(15)
1(16)
1(17)
1(18)
1(19)
1(20)
1(21)
1(22)
1(23)
1(24)
1(25)
1(26)
1(27)
1(28)
1(29)
1(30)
1(31)
1(32)
1(33)
1(34)
1(35)
1(36)
1(37)
1(38)
1(39)
1(40)
1(41)
1(42)
1(43)
1(44)
1(45)
1(46)
1(47)
1(48)
1(49)
1(50)
1(51)
1(52)
1(53)
1(54)
1(55)
1(56)
1(57)
1(58)
1(59)
1(60)
1(61)
1(62)
1(63)
1(64)
1(65)
1(66)
1(67)
1(68)
1(69)
1(70)
1(71)
1(72)
1(73)
1(74)
1(75)
1(76)
1(77)
1(78)
1(79)
1(80)
1(81)
1(82)
1(83)
1(84)
1(85)
1(86)
1(87)
1(88)
1(89)
1(90)
1(91)
1(92)
1(93)
1(94)
1(95)
1(96)
1(97)
1(98)
1(99)
1(100)
1(101)
1(102)
1(103)
1(104)
1(105)
1(106)
1(107)
1(108)
1(109)
1(110)
1(111)
1(112)
1(113)
1(114)
1(115)
1(116)
1(117)
1(118)
1(119)
1(120)
1(121)
1(122)
1(123)
1(124)
1(125)
1(126)
1(127)
1(128)
1(129)
1(130)
1(130)
1(131)
1(132)
1(133)
1(134)
1(135)
1(136)
1(137)
1(138)
1(139)
1(140)
1(141)
1(142)
1(143)
1(144)
1(145)
1(146)
1(147)
1(148)
1(149)
1(150)
1(151)
1(152)
1(153)
1(154)
1(155)
1(156)
1(157)
1(158)
1(159)
1(160)
1(161)
1(162)
1(163)
1(164)
1(165)
1(166)
1(167)
1(168)
1(169)
1(170)
1(171)
1(172)
1(173)
1(174)
1(175)
1(176)
1(177)
1(178)
1(179)
1(180)
1(181)
1(182)
1(183)
1(184)
1(185)
1(186)
1(187)
1(188)
1(189)
1(190)
1(191)
1(192)
1(193)
1(194)
1(195)
1(196)
1(197)
1(198)
1(199)
1(200)
1(201)
1(202)
1(203)
1(204)
1(205)
1(206)
1(207)
1(208)
1(209)
1(210)
1(211)
1(212)
1(213)
1(214)
1(215)
1(216)
1(217)
1(218)
1(219)
1(220)
1(221)
1(222)
1(223)
1(224)
1(225)
1(226)
1(227)
1(228)
1(229)
1(230)
1(231)
1(232)
1(233)
1(234)
1(235)
1(236)
1(237)
1(238)
1(239)
1(240)
1(241)
1(242)
1(243)
1(244)
1(245)
1(246)
1(247)
1(248)
1(249)
1(250)
1(251)
1(252)
1(253)
1(254)
1(255)
1(256)
1(257)
1(258)
1(259)
1(260)
1(261)
1(262)
1(263)
1(264)
1(265)
1(266)
1(267)
1(268)
1(268)
1(269)
1(270)
1(271)
1(272)
1(273)
1(274)
1(275)
1(276)
1(277)
)

// featurePointNormals

8
(
2(24 276)
2(24 276)
1(127)
1(130)
2(155 277)
2(155 277)
1(267)
1(268)
)

// featurePointEdges

8
(
3(0 26 281)
3(0 27 280)
2(129 133)
2(132 133)
3(1 172 281)
3(1 158 280)
2(270 272)
2(271 272)
)

// regionEdges

280
(
2
3
4
5
6
7
8
9
10
11
12
13
14
15
16
17
18
19
20
21
22
23
24
25
26
27
28
29
30
31
32
33
34
35
36
37
38
39
40
41
42
43
44
45
46
47
48
49
50
51
52
53
54
55
56
57
58
59
60
61
62
63
64
65
66
67
68
69
70
71
72
73
74
75
76
77
78
79
80
81
82
83
84
85
86
87
88
89
90
91
92
93
94
95
96
97
98
99
100
101
102
103
104
105
106
107
108
109
110
111
112
113
114
115
116
117
118
119
120
121
122
123
124
125
126
127
128
129
130
131
132
133
134
135
136
137
138
139
140
141
142
143
144
145
146
147
148
149
150
151
152
153
154
155
156
157
158
159
160
161
162
163
164
165
166
167
168
169
170
171
172
173
174
175
176
177
178
179
180
181
182
183
184
185
186
187
188
189
190
191
192
193
194
195
196
197
198
199
200
201
202
203
204
205
206
207
208
209
210
211
212
213
214
215
216
217
218
219
220
221
222
223
224
225
226
227
228
229
230
231
232
233
234
235
236
237
238
239
240
241
242
243
244
245
246
247
248
249
250
251
252
253
254
255
256
257
258
259
260
261
262
263
264
265
266
267
268
269
270
271
272
273
274
275
276
277
278
279
280
281
)



// ************************************************************************* //
